
---------- Begin Simulation Statistics ----------
simSeconds                                  16.684103                       # Number of seconds simulated (Second)
simTicks                                 16684102804500                       # Number of ticks simulated (Tick)
finalTick                                16684102804500                       # Number of ticks from beginning of simulation (restored from checkpoints and never reset) (Tick)
simFreq                                  1000000000000                       # The number of ticks per simulated second ((Tick/Second))
hostSeconds                                    115.38                       # Real time elapsed on the host (Second)
hostTickRate                             144603939260                       # The number of ticks simulated per host second (ticks/s) ((Tick/Second))
hostMemory                                   23229584                       # Number of bytes of host memory used (Byte)
simInsts                                  12294155653                       # Number of instructions simulated (Count)
simOps                                    12294155653                       # Number of ops (including micro ops) simulated (Count)
hostInstRate                                106555340                       # Simulator instruction rate (inst/s) ((Count/Second))
hostOpRate                                  106555331                       # Simulator op (including micro ops) rate (op/s) ((Count/Second))
system.clk_domain.clock                          1000                       # Clock period in ticks (Tick)
system.cpu0.numCycles                    131616086281                       # Number of cpu cycles simulated (Cycle)
system.cpu0.numWorkItemsStarted                     0                       # Number of work items this cpu started (Count)
system.cpu0.numWorkItemsCompleted                   0                       # Number of work items this cpu completed (Count)
system.cpu0.committedInsts                12294155653                       # Number of instructions committed (Count)
system.cpu0.numVMExits                        2952563                       # total number of KVM exits (Count)
system.cpu0.numVMHalfEntries                    19086                       # number of KVM entries to finalize pending operations (Count)
system.cpu0.numExitSignal                     2632008                       # exits due to signal delivery (Count)
system.cpu0.numMMIO                             86665                       # number of VM exits due to memory mapped IO (Count)
system.cpu0.numCoalescedMMIO                        0                       # number of coalesced memory mapped IO requests (Count)
system.cpu0.numIO                              225583                       # number of VM exits due to legacy IO (Count)
system.cpu0.numHalt                              1556                       # number of VM exits due to wait for interrupt instructions (Count)
system.cpu0.numInterrupts                        9655                       # number of interrupts delivered (Count)
system.cpu0.numHypercalls                           0                       # number of hypercalls (Count)
system.cpu0.interrupts.clk_domain.clock          8000                       # Clock period in ticks (Tick)
system.cpu0.mmu.dtb.rdAccesses                      0                       # TLB accesses on read requests (Count)
system.cpu0.mmu.dtb.wrAccesses                      0                       # TLB accesses on write requests (Count)
system.cpu0.mmu.dtb.rdMisses                        0                       # TLB misses on read requests (Count)
system.cpu0.mmu.dtb.wrMisses                        0                       # TLB misses on write requests (Count)
system.cpu0.mmu.dtb.walker.power_state.pwrStateResidencyTicks::UNDEFINED 16684102804500                       # Cumulative time (in ticks) in various power states (Tick)
system.cpu0.mmu.itb.rdAccesses                      0                       # TLB accesses on read requests (Count)
system.cpu0.mmu.itb.wrAccesses                      0                       # TLB accesses on write requests (Count)
system.cpu0.mmu.itb.rdMisses                        0                       # TLB misses on read requests (Count)
system.cpu0.mmu.itb.wrMisses                        0                       # TLB misses on write requests (Count)
system.cpu0.mmu.itb.walker.power_state.pwrStateResidencyTicks::UNDEFINED 16684102804500                       # Cumulative time (in ticks) in various power states (Tick)
system.cpu0.power_state.pwrStateResidencyTicks::ON 16684102804500                       # Cumulative time (in ticks) in various power states (Tick)
system.cpu0.thread_0.numInsts                       0                       # Number of Instructions committed (Count)
system.cpu0.thread_0.numOps                         0                       # Number of Ops committed (Count)
system.cpu0.thread_0.numMemRefs                     0                       # Number of Memory References (Count)
system.cpu1.allLatencyDist::bucket_size         10000                       # delay distribution for all (Unspecified)
system.cpu1.allLatencyDist::min_bucket              0                       # delay distribution for all (Unspecified)
system.cpu1.allLatencyDist::max_bucket        1600000                       # delay distribution for all (Unspecified)
system.cpu1.allLatencyDist::samples             31574                       # delay distribution for all (Unspecified)
system.cpu1.allLatencyDist::mean         1549639.101793                       # delay distribution for all (Unspecified)
system.cpu1.allLatencyDist::stdev        1140163.332293                       # delay distribution for all (Unspecified)
system.cpu1.allLatencyDist::underflows              0      0.00%      0.00% # delay distribution for all (Unspecified)
system.cpu1.allLatencyDist               |           0      0.00%      0.00% |           0      0.00%      0.00% |           0      0.00%      0.00% |           0      0.00%      0.00% |           0      0.00%      0.00% |           0      0.00%      0.00% |           0      0.00%      0.00% |           0      0.00%      0.00% |           0      0.00%      0.00% |           0      0.00%      0.00% |        2135      6.76%      6.76% |         235      0.74%      7.51% |         210      0.67%      8.17% |         462      1.46%      9.63% |         152      0.48%     10.12% |         368      1.17%     11.28% |        2207      6.99%     18.27% |         755      2.39%     20.66% |          19      0.06%     20.72% |         135      0.43%     21.15% |         123      0.39%     21.54% |         140      0.44%     21.98% |          48      0.15%     22.14% |          43      0.14%     22.27% |          26      0.08%     22.35% |          25      0.08%     22.43% |          37      0.12%     22.55% |          25      0.08%     22.63% |          15      0.05%     22.68% |          28      0.09%     22.77% |          30      0.10%     22.86% |          17      0.05%     22.91% |          19      0.06%     22.97% |          33      0.10%     23.08% |          25      0.08%     23.16% |          10      0.03%     23.19% |          12      0.04%     23.23% |          12      0.04%     23.27% |          12      0.04%     23.30% |          10      0.03%     23.34% |          12      0.04%     23.37% |          15      0.05%     23.42% |           5      0.02%     23.44% |          14      0.04%     23.48% |          26      0.08%     23.56% |          11      0.03%     23.60% |           2      0.01%     23.60% |           7      0.02%     23.63% |           3      0.01%     23.64% |           2      0.01%     23.64% |           7      0.02%     23.67% |           2      0.01%     23.67% |           0      0.00%     23.67% |           1      0.00%     23.67% |           9      0.03%     23.70% |           1      0.00%     23.71% |           1      0.00%     23.71% |           0      0.00%     23.71% |           0      0.00%     23.71% |           0      0.00%     23.71% |           0      0.00%     23.71% |           0      0.00%     23.71% |           5      0.02%     23.73% |           1      0.00%     23.73% |           0      0.00%     23.73% |           0      0.00%     23.73% |           0      0.00%     23.73% |           0      0.00%     23.73% |           0      0.00%     23.73% |           0      0.00%     23.73% |           0      0.00%     23.73% |           0      0.00%     23.73% |           0      0.00%     23.73% |           0      0.00%     23.73% |           0      0.00%     23.73% |           2      0.01%     23.73% |           2      0.01%     23.74% |           0      0.00%     23.74% |           0      0.00%     23.74% |           0      0.00%     23.74% |           0      0.00%     23.74% |           0      0.00%     23.74% |           0      0.00%     23.74% |           0      0.00%     23.74% |           0      0.00%     23.74% |           0      0.00%     23.74% |           0      0.00%     23.74% |           0      0.00%     23.74% |           0      0.00%     23.74% |           0      0.00%     23.74% |           0      0.00%     23.74% |           0      0.00%     23.74% |           1      0.00%     23.74% |           0      0.00%     23.74% |           1      0.00%     23.75% |           0      0.00%     23.75% |           1      0.00%     23.75% |           9      0.03%     23.78% |           1      0.00%     23.78% |           0      0.00%     23.78% |           0      0.00%     23.78% |           0      0.00%     23.78% |           0      0.00%     23.78% |           0      0.00%     23.78% |           0      0.00%     23.78% |          12      0.04%     23.82% |           7      0.02%     23.84% |           3      0.01%     23.85% |           2      0.01%     23.86% |           5      0.02%     23.87% |          10      0.03%     23.91% |          10      0.03%     23.94% |          11      0.03%     23.97% |           7      0.02%     23.99% |          11      0.03%     24.03% |          11      0.03%     24.06% |           7      0.02%     24.09% |          10      0.03%     24.12% |           7      0.02%     24.14% |           6      0.02%     24.16% |          19      0.06%     24.22% |          22      0.07%     24.29% |          17      0.05%     24.34% |          21      0.07%     24.41% |           8      0.03%     24.43% |          20      0.06%     24.50% |          23      0.07%     24.57% |          27      0.09%     24.66% |          32      0.10%     24.76% |          33      0.10%     24.86% |          31      0.10%     24.96% |          53      0.17%     25.13% |          34      0.11%     25.24% |          84      0.27%     25.50% |        1473      4.67%     30.17% |        1576      4.99%     35.16% |        1457      4.61%     39.77% |        1277      4.04%     43.82% |        1564      4.95%     48.77% |        1255      3.97%     52.75% |        1127      3.57%     56.32% |        1961      6.21%     62.53% |         813      2.57%     65.10% |         464      1.47%     66.57% |         570      1.81%     68.38% |         375      1.19%     69.56% |         373      1.18%     70.74% |         301      0.95%     71.70% |         250      0.79%     72.49% |         129      0.41%     72.90% |         106      0.34%     73.23% |         106      0.34%     73.57% |         112      0.35%     73.92% |          89      0.28%     74.21% |          69      0.22%     74.43% |          74      0.23%     74.66% |          90      0.29%     74.94% |          44      0.14%     75.08% |          66      0.21%     75.29% |          69      0.22%     75.51% |           4      0.01%     75.52% # delay distribution for all (Unspecified)
system.cpu1.allLatencyDist::overflows            7728     24.48%    100.00% # delay distribution for all (Unspecified)
system.cpu1.allLatencyDist::min_value          103000                       # delay distribution for all (Unspecified)
system.cpu1.allLatencyDist::max_value         5375000                       # delay distribution for all (Unspecified)
system.cpu1.allLatencyDist::total               31574                       # delay distribution for all (Unspecified)
system.cpu1.loadLatencyDist::bucket_size        10000                       # delay distribution for loads (Unspecified)
system.cpu1.loadLatencyDist::min_bucket             0                       # delay distribution for loads (Unspecified)
system.cpu1.loadLatencyDist::max_bucket       1600000                       # delay distribution for loads (Unspecified)
system.cpu1.loadLatencyDist::samples            15787                       # delay distribution for loads (Unspecified)
system.cpu1.loadLatencyDist::mean        2161254.323177                       # delay distribution for loads (Unspecified)
system.cpu1.loadLatencyDist::stdev       1221876.045239                       # delay distribution for loads (Unspecified)
system.cpu1.loadLatencyDist::underflows             0      0.00%      0.00% # delay distribution for loads (Unspecified)
system.cpu1.loadLatencyDist              |           0      0.00%      0.00% |           0      0.00%      0.00% |           0      0.00%      0.00% |           0      0.00%      0.00% |           0      0.00%      0.00% |           0      0.00%      0.00% |           0      0.00%      0.00% |           0      0.00%      0.00% |           0      0.00%      0.00% |           0      0.00%      0.00% |         120      0.76%      0.76% |          71      0.45%      1.21% |          24      0.15%      1.36% |         153      0.97%      2.33% |          47      0.30%      2.63% |          91      0.58%      3.21% |         596      3.78%      6.98% |         163      1.03%      8.01% |           4      0.03%      8.04% |          32      0.20%      8.24% |          80      0.51%      8.75% |         114      0.72%      9.47% |          22      0.14%      9.61% |          10      0.06%      9.67% |          20      0.13%      9.80% |          19      0.12%      9.92% |          23      0.15%     10.07% |          16      0.10%     10.17% |           7      0.04%     10.21% |           3      0.02%     10.23% |           3      0.02%     10.25% |          11      0.07%     10.32% |          17      0.11%     10.43% |          14      0.09%     10.51% |          10      0.06%     10.58% |           2      0.01%     10.59% |           1      0.01%     10.60% |           7      0.04%     10.64% |           3      0.02%     10.66% |           0      0.00%     10.66% |           4      0.03%     10.69% |           5      0.03%     10.72% |           0      0.00%     10.72% |           5      0.03%     10.75% |          18      0.11%     10.86% |           8      0.05%     10.91% |           2      0.01%     10.93% |           7      0.04%     10.97% |           3      0.02%     10.99% |           2      0.01%     11.00% |           3      0.02%     11.02% |           2      0.01%     11.03% |           0      0.00%     11.03% |           0      0.00%     11.03% |           6      0.04%     11.07% |           0      0.00%     11.07% |           0      0.00%     11.07% |           0      0.00%     11.07% |           0      0.00%     11.07% |           0      0.00%     11.07% |           0      0.00%     11.07% |           0      0.00%     11.07% |           5      0.03%     11.10% |           1      0.01%     11.11% |           0      0.00%     11.11% |           0      0.00%     11.11% |           0      0.00%     11.11% |           0      0.00%     11.11% |           0      0.00%     11.11% |           0      0.00%     11.11% |           0      0.00%     11.11% |           0      0.00%     11.11% |           0      0.00%     11.11% |           0      0.00%     11.11% |           0      0.00%     11.11% |           2      0.01%     11.12% |           2      0.01%     11.14% |           0      0.00%     11.14% |           0      0.00%     11.14% |           0      0.00%     11.14% |           0      0.00%     11.14% |           0      0.00%     11.14% |           0      0.00%     11.14% |           0      0.00%     11.14% |           0      0.00%     11.14% |           0      0.00%     11.14% |           0      0.00%     11.14% |           0      0.00%     11.14% |           0      0.00%     11.14% |           0      0.00%     11.14% |           0      0.00%     11.14% |           0      0.00%     11.14% |           1      0.01%     11.14% |           0      0.00%     11.14% |           1      0.01%     11.15% |           0      0.00%     11.15% |           1      0.01%     11.15% |           5      0.03%     11.19% |           0      0.00%     11.19% |           0      0.00%     11.19% |           0      0.00%     11.19% |           0      0.00%     11.19% |           0      0.00%     11.19% |           0      0.00%     11.19% |           0      0.00%     11.19% |           6      0.04%     11.22% |           2      0.01%     11.24% |           0      0.00%     11.24% |           0      0.00%     11.24% |           0      0.00%     11.24% |           6      0.04%     11.28% |           5      0.03%     11.31% |           3      0.02%     11.33% |           4      0.03%     11.35% |           8      0.05%     11.40% |           0      0.00%     11.40% |           5      0.03%     11.43% |           2      0.01%     11.45% |           4      0.03%     11.47% |           2      0.01%     11.48% |          13      0.08%     11.57% |          12      0.08%     11.64% |           4      0.03%     11.67% |           5      0.03%     11.70% |           1      0.01%     11.71% |          12      0.08%     11.78% |          11      0.07%     11.85% |           7      0.04%     11.90% |          11      0.07%     11.97% |           8      0.05%     12.02% |           9      0.06%     12.07% |           8      0.05%     12.12% |          13      0.08%     12.21% |          24      0.15%     12.36% |         676      4.28%     16.64% |         676      4.28%     20.92% |         195      1.24%     22.16% |         599      3.79%     25.95% |         782      4.95%     30.91% |         136      0.86%     31.77% |         262      1.66%     33.43% |         581      3.68%     37.11% |         293      1.86%     38.96% |         111      0.70%     39.67% |         251      1.59%     41.26% |         157      0.99%     42.25% |         153      0.97%     43.22% |         228      1.44%     44.66% |         124      0.79%     45.45% |         116      0.73%     46.18% |          84      0.53%     46.72% |          86      0.54%     47.26% |         102      0.65%     47.91% |          80      0.51%     48.41% |          69      0.44%     48.85% |          74      0.47%     49.32% |          90      0.57%     49.89% |          44      0.28%     50.17% |          66      0.42%     50.59% |          69      0.44%     51.02% |           4      0.03%     51.05% # delay distribution for loads (Unspecified)
system.cpu1.loadLatencyDist::overflows           7728     48.95%    100.00% # delay distribution for loads (Unspecified)
system.cpu1.loadLatencyDist::min_value         103000                       # delay distribution for loads (Unspecified)
system.cpu1.loadLatencyDist::max_value        5375000                       # delay distribution for loads (Unspecified)
system.cpu1.loadLatencyDist::total              15787                       # delay distribution for loads (Unspecified)
system.cpu1.storeLatencyDist::bucket_size        10000                       # delay distribution for stores (Unspecified)
system.cpu1.storeLatencyDist::min_bucket            0                       # delay distribution for stores (Unspecified)
system.cpu1.storeLatencyDist::max_bucket      1600000                       # delay distribution for stores (Unspecified)
system.cpu1.storeLatencyDist::samples           15787                       # delay distribution for stores (Unspecified)
system.cpu1.storeLatencyDist::mean       938023.880408                       # delay distribution for stores (Unspecified)
system.cpu1.storeLatencyDist::stdev      599042.884355                       # delay distribution for stores (Unspecified)
system.cpu1.storeLatencyDist::underflows            0      0.00%      0.00% # delay distribution for stores (Unspecified)
system.cpu1.storeLatencyDist             |           0      0.00%      0.00% |           0      0.00%      0.00% |           0      0.00%      0.00% |           0      0.00%      0.00% |           0      0.00%      0.00% |           0      0.00%      0.00% |           0      0.00%      0.00% |           0      0.00%      0.00% |           0      0.00%      0.00% |           0      0.00%      0.00% |        2015     12.76%     12.76% |         164      1.04%     13.80% |         186      1.18%     14.98% |         309      1.96%     16.94% |         105      0.67%     17.60% |         277      1.75%     19.36% |        1611     10.20%     29.56% |         592      3.75%     33.31% |          15      0.10%     33.41% |         103      0.65%     34.06% |          43      0.27%     34.33% |          26      0.16%     34.50% |          26      0.16%     34.66% |          33      0.21%     34.87% |           6      0.04%     34.91% |           6      0.04%     34.95% |          14      0.09%     35.04% |           9      0.06%     35.09% |           8      0.05%     35.14% |          25      0.16%     35.30% |          27      0.17%     35.47% |           6      0.04%     35.51% |           2      0.01%     35.52% |          19      0.12%     35.64% |          15      0.10%     35.74% |           8      0.05%     35.79% |          11      0.07%     35.86% |           5      0.03%     35.89% |           9      0.06%     35.95% |          10      0.06%     36.01% |           8      0.05%     36.06% |          10      0.06%     36.12% |           5      0.03%     36.16% |           9      0.06%     36.21% |           8      0.05%     36.26% |           3      0.02%     36.28% |           0      0.00%     36.28% |           0      0.00%     36.28% |           0      0.00%     36.28% |           0      0.00%     36.28% |           4      0.03%     36.31% |           0      0.00%     36.31% |           0      0.00%     36.31% |           1      0.01%     36.31% |           3      0.02%     36.33% |           1      0.01%     36.34% |           1      0.01%     36.35% |           0      0.00%     36.35% |           0      0.00%     36.35% |           0      0.00%     36.35% |           0      0.00%     36.35% |           0      0.00%     36.35% |           0      0.00%     36.35% |           0      0.00%     36.35% |           0      0.00%     36.35% |           0      0.00%     36.35% |           0      0.00%     36.35% |           0      0.00%     36.35% |           0      0.00%     36.35% |           0      0.00%     36.35% |           0      0.00%     36.35% |           0      0.00%     36.35% |           0      0.00%     36.35% |           0      0.00%     36.35% |           0      0.00%     36.35% |           0      0.00%     36.35% |           0      0.00%     36.35% |           0      0.00%     36.35% |           0      0.00%     36.35% |           0      0.00%     36.35% |           0      0.00%     36.35% |           0      0.00%     36.35% |           0      0.00%     36.35% |           0      0.00%     36.35% |           0      0.00%     36.35% |           0      0.00%     36.35% |           0      0.00%     36.35% |           0      0.00%     36.35% |           0      0.00%     36.35% |           0      0.00%     36.35% |           0      0.00%     36.35% |           0      0.00%     36.35% |           0      0.00%     36.35% |           0      0.00%     36.35% |           0      0.00%     36.35% |           0      0.00%     36.35% |           0      0.00%     36.35% |           4      0.03%     36.37% |           1      0.01%     36.38% |           0      0.00%     36.38% |           0      0.00%     36.38% |           0      0.00%     36.38% |           0      0.00%     36.38% |           0      0.00%     36.38% |           0      0.00%     36.38% |           6      0.04%     36.42% |           5      0.03%     36.45% |           3      0.02%     36.47% |           2      0.01%     36.48% |           5      0.03%     36.51% |           4      0.03%     36.54% |           5      0.03%     36.57% |           8      0.05%     36.62% |           3      0.02%     36.64% |           3      0.02%     36.66% |          11      0.07%     36.73% |           2      0.01%     36.74% |           8      0.05%     36.79% |           3      0.02%     36.81% |           4      0.03%     36.83% |           6      0.04%     36.87% |          10      0.06%     36.94% |          13      0.08%     37.02% |          16      0.10%     37.12% |           7      0.04%     37.16% |           8      0.05%     37.21% |          12      0.08%     37.29% |          20      0.13%     37.42% |          21      0.13%     37.55% |          25      0.16%     37.71% |          22      0.14%     37.85% |          45      0.29%     38.13% |          21      0.13%     38.27% |          60      0.38%     38.65% |         797      5.05%     43.69% |         900      5.70%     49.40% |        1262      7.99%     57.39% |         678      4.29%     61.68% |         782      4.95%     66.64% |        1119      7.09%     73.73% |         865      5.48%     79.20% |        1380      8.74%     87.95% |         520      3.29%     91.24% |         353      2.24%     93.48% |         319      2.02%     95.50% |         218      1.38%     96.88% |         220      1.39%     98.27% |          73      0.46%     98.73% |         126      0.80%     99.53% |          13      0.08%     99.61% |          22      0.14%     99.75% |          20      0.13%     99.88% |          10      0.06%     99.94% |           9      0.06%    100.00% |           0      0.00%    100.00% |           0      0.00%    100.00% |           0      0.00%    100.00% |           0      0.00%    100.00% |           0      0.00%    100.00% |           0      0.00%    100.00% |           0      0.00%    100.00% # delay distribution for stores (Unspecified)
system.cpu1.storeLatencyDist::overflows             0      0.00%    100.00% # delay distribution for stores (Unspecified)
system.cpu1.storeLatencyDist::min_value        103000                       # delay distribution for stores (Unspecified)
system.cpu1.storeLatencyDist::max_value       1539000                       # delay distribution for stores (Unspecified)
system.cpu1.storeLatencyDist::total             15787                       # delay distribution for stores (Unspecified)
system.cpu1.initToCoalesceLatency::bucket_size        10000                       # Ticks from vmem inst initiateAcc to coalescer issue (Unspecified)
system.cpu1.initToCoalesceLatency::min_bucket            0                       # Ticks from vmem inst initiateAcc to coalescer issue (Unspecified)
system.cpu1.initToCoalesceLatency::max_bucket      1600000                       # Ticks from vmem inst initiateAcc to coalescer issue (Unspecified)
system.cpu1.initToCoalesceLatency::samples            0                       # Ticks from vmem inst initiateAcc to coalescer issue (Unspecified)
system.cpu1.initToCoalesceLatency::mean           nan                       # Ticks from vmem inst initiateAcc to coalescer issue (Unspecified)
system.cpu1.initToCoalesceLatency::stdev          nan                       # Ticks from vmem inst initiateAcc to coalescer issue (Unspecified)
system.cpu1.initToCoalesceLatency::underflows            0                       # Ticks from vmem inst initiateAcc to coalescer issue (Unspecified)
system.cpu1.initToCoalesceLatency        |           0                       |           0                       |           0                       |           0                       |           0                       |           0                       |           0                       |           0                       |           0                       |           0                       |           0                       |           0                       |           0                       |           0                       |           0                       |           0                       |           0                       |           0                       |           0                       |           0                       |           0                       |           0                       |           0                       |           0                       |           0                       |           0                       |           0                       |           0                       |           0                       |           0                       |           0                       |           0                       |           0                       |           0                       |           0                       |           0                       |           0                       |           0                       |           0                       |           0                       |           0                       |           0                       |           0                       |           0                       |           0                       |           0                       |           0                       |           0                       |           0                       |           0                       |           0                       |           0                       |           0                       |           0                       |           0                       |           0                       |           0                       |           0                       |           0                       |           0                       |           0                       |           0                       |           0                       |           0                       |           0                       |           0                       |           0                       |           0                       |           0                       |           0                       |           0                       |           0                       |           0                       |           0                       |           0                       |           0                       |           0                       |           0                       |           0                       |           0                       |           0                       |           0                       |           0                       |           0                       |           0                       |           0                       |           0                       |           0                       |           0                       |           0                       |           0                       |           0                       |           0                       |           0                       |           0                       |           0                       |           0                       |           0                       |           0                       |           0                       |           0                       |           0                       |           0                       |           0                       |           0                       |           0                       |           0                       |           0                       |           0                       |           0                       |           0                       |           0                       |           0                       |           0                       |           0                       |           0                       |           0                       |           0                       |           0                       |           0                       |           0                       |           0                       |           0                       |           0                       |           0                       |           0                       |           0                       |           0                       |           0                       |           0                       |           0                       |           0                       |           0                       |           0                       |           0                       |           0                       |           0                       |           0                       |           0                       |           0                       |           0                       |           0                       |           0                       |           0                       |           0                       |           0                       |           0                       |           0                       |           0                       |           0                       |           0                       |           0                       |           0                       |           0                       |           0                       |           0                       |           0                       |           0                       |           0                       |           0                       |           0                       # Ticks from vmem inst initiateAcc to coalescer issue (Unspecified)
system.cpu1.initToCoalesceLatency::overflows            0                       # Ticks from vmem inst initiateAcc to coalescer issue (Unspecified)
system.cpu1.initToCoalesceLatency::min_value            0                       # Ticks from vmem inst initiateAcc to coalescer issue (Unspecified)
system.cpu1.initToCoalesceLatency::max_value            0                       # Ticks from vmem inst initiateAcc to coalescer issue (Unspecified)
system.cpu1.initToCoalesceLatency::total            0                       # Ticks from vmem inst initiateAcc to coalescer issue (Unspecified)
system.cpu1.rubyNetworkLatency::bucket_size        10000                       # Ticks from coalescer issue to coalescer hit callback (Unspecified)
system.cpu1.rubyNetworkLatency::min_bucket            0                       # Ticks from coalescer issue to coalescer hit callback (Unspecified)
system.cpu1.rubyNetworkLatency::max_bucket      1600000                       # Ticks from coalescer issue to coalescer hit callback (Unspecified)
system.cpu1.rubyNetworkLatency::samples             0                       # Ticks from coalescer issue to coalescer hit callback (Unspecified)
system.cpu1.rubyNetworkLatency::mean              nan                       # Ticks from coalescer issue to coalescer hit callback (Unspecified)
system.cpu1.rubyNetworkLatency::stdev             nan                       # Ticks from coalescer issue to coalescer hit callback (Unspecified)
system.cpu1.rubyNetworkLatency::underflows            0                       # Ticks from coalescer issue to coalescer hit callback (Unspecified)
system.cpu1.rubyNetworkLatency           |           0                       |           0                       |           0                       |           0                       |           0                       |           0                       |           0                       |           0                       |           0                       |           0                       |           0                       |           0                       |           0                       |           0                       |           0                       |           0                       |           0                       |           0                       |           0                       |           0                       |           0                       |           0                       |           0                       |           0                       |           0                       |           0                       |           0                       |           0                       |           0                       |           0                       |           0                       |           0                       |           0                       |           0                       |           0                       |           0                       |           0                       |           0                       |           0                       |           0                       |           0                       |           0                       |           0                       |           0                       |           0                       |           0                       |           0                       |           0                       |           0                       |           0                       |           0                       |           0                       |           0                       |           0                       |           0                       |           0                       |           0                       |           0                       |           0                       |           0                       |           0                       |           0                       |           0                       |           0                       |           0                       |           0                       |           0                       |           0                       |           0                       |           0                       |           0                       |           0                       |           0                       |           0                       |           0                       |           0                       |           0                       |           0                       |           0                       |           0                       |           0                       |           0                       |           0                       |           0                       |           0                       |           0                       |           0                       |           0                       |           0                       |           0                       |           0                       |           0                       |           0                       |           0                       |           0                       |           0                       |           0                       |           0                       |           0                       |           0                       |           0                       |           0                       |           0                       |           0                       |           0                       |           0                       |           0                       |           0                       |           0                       |           0                       |           0                       |           0                       |           0                       |           0                       |           0                       |           0                       |           0                       |           0                       |           0                       |           0                       |           0                       |           0                       |           0                       |           0                       |           0                       |           0                       |           0                       |           0                       |           0                       |           0                       |           0                       |           0                       |           0                       |           0                       |           0                       |           0                       |           0                       |           0                       |           0                       |           0                       |           0                       |           0                       |           0                       |           0                       |           0                       |           0                       |           0                       |           0                       |           0                       |           0                       |           0                       |           0                       |           0                       |           0                       |           0                       |           0                       |           0                       |           0                       |           0                       |           0                       |           0                       # Ticks from coalescer issue to coalescer hit callback (Unspecified)
system.cpu1.rubyNetworkLatency::overflows            0                       # Ticks from coalescer issue to coalescer hit callback (Unspecified)
system.cpu1.rubyNetworkLatency::min_value            0                       # Ticks from coalescer issue to coalescer hit callback (Unspecified)
system.cpu1.rubyNetworkLatency::max_value            0                       # Ticks from coalescer issue to coalescer hit callback (Unspecified)
system.cpu1.rubyNetworkLatency::total               0                       # Ticks from coalescer issue to coalescer hit callback (Unspecified)
system.cpu1.gmEnqueueLatency::bucket_size        10000                       # Ticks from coalescer hit callback to GM pipe enqueue (Unspecified)
system.cpu1.gmEnqueueLatency::min_bucket            0                       # Ticks from coalescer hit callback to GM pipe enqueue (Unspecified)
system.cpu1.gmEnqueueLatency::max_bucket      1600000                       # Ticks from coalescer hit callback to GM pipe enqueue (Unspecified)
system.cpu1.gmEnqueueLatency::samples               0                       # Ticks from coalescer hit callback to GM pipe enqueue (Unspecified)
system.cpu1.gmEnqueueLatency::mean                nan                       # Ticks from coalescer hit callback to GM pipe enqueue (Unspecified)
system.cpu1.gmEnqueueLatency::stdev               nan                       # Ticks from coalescer hit callback to GM pipe enqueue (Unspecified)
system.cpu1.gmEnqueueLatency::underflows            0                       # Ticks from coalescer hit callback to GM pipe enqueue (Unspecified)
system.cpu1.gmEnqueueLatency             |           0                       |           0                       |           0                       |           0                       |           0                       |           0                       |           0                       |           0                       |           0                       |           0                       |           0                       |           0                       |           0                       |           0                       |           0                       |           0                       |           0                       |           0                       |           0                       |           0                       |           0                       |           0                       |           0                       |           0                       |           0                       |           0                       |           0                       |           0                       |           0                       |           0                       |           0                       |           0                       |           0                       |           0                       |           0                       |           0                       |           0                       |           0                       |           0                       |           0                       |           0                       |           0                       |           0                       |           0                       |           0                       |           0                       |           0                       |           0                       |           0                       |           0                       |           0                       |           0                       |           0                       |           0                       |           0                       |           0                       |           0                       |           0                       |           0                       |           0                       |           0                       |           0                       |           0                       |           0                       |           0                       |           0                       |           0                       |           0                       |           0                       |           0                       |           0                       |           0                       |           0                       |           0                       |           0                       |           0                       |           0                       |           0                       |           0                       |           0                       |           0                       |           0                       |           0                       |           0                       |           0                       |           0                       |           0                       |           0                       |           0                       |           0                       |           0                       |           0                       |           0                       |           0                       |           0                       |           0                       |           0                       |           0                       |           0                       |           0                       |           0                       |           0                       |           0                       |           0                       |           0                       |           0                       |           0                       |           0                       |           0                       |           0                       |           0                       |           0                       |           0                       |           0                       |           0                       |           0                       |           0                       |           0                       |           0                       |           0                       |           0                       |           0                       |           0                       |           0                       |           0                       |           0                       |           0                       |           0                       |           0                       |           0                       |           0                       |           0                       |           0                       |           0                       |           0                       |           0                       |           0                       |           0                       |           0                       |           0                       |           0                       |           0                       |           0                       |           0                       |           0                       |           0                       |           0                       |           0                       |           0                       |           0                       |           0                       |           0                       |           0                       |           0                       |           0                       |           0                       |           0                       |           0                       |           0                       |           0                       |           0                       # Ticks from coalescer hit callback to GM pipe enqueue (Unspecified)
system.cpu1.gmEnqueueLatency::overflows             0                       # Ticks from coalescer hit callback to GM pipe enqueue (Unspecified)
system.cpu1.gmEnqueueLatency::min_value             0                       # Ticks from coalescer hit callback to GM pipe enqueue (Unspecified)
system.cpu1.gmEnqueueLatency::max_value             0                       # Ticks from coalescer hit callback to GM pipe enqueue (Unspecified)
system.cpu1.gmEnqueueLatency::total                 0                       # Ticks from coalescer hit callback to GM pipe enqueue (Unspecified)
system.cpu1.gmToCompleteLatency::bucket_size        10000                       # Ticks queued in GM pipes ordered response buffer (Unspecified)
system.cpu1.gmToCompleteLatency::min_bucket            0                       # Ticks queued in GM pipes ordered response buffer (Unspecified)
system.cpu1.gmToCompleteLatency::max_bucket      1600000                       # Ticks queued in GM pipes ordered response buffer (Unspecified)
system.cpu1.gmToCompleteLatency::samples            0                       # Ticks queued in GM pipes ordered response buffer (Unspecified)
system.cpu1.gmToCompleteLatency::mean             nan                       # Ticks queued in GM pipes ordered response buffer (Unspecified)
system.cpu1.gmToCompleteLatency::stdev            nan                       # Ticks queued in GM pipes ordered response buffer (Unspecified)
system.cpu1.gmToCompleteLatency::underflows            0                       # Ticks queued in GM pipes ordered response buffer (Unspecified)
system.cpu1.gmToCompleteLatency          |           0                       |           0                       |           0                       |           0                       |           0                       |           0                       |           0                       |           0                       |           0                       |           0                       |           0                       |           0                       |           0                       |           0                       |           0                       |           0                       |           0                       |           0                       |           0                       |           0                       |           0                       |           0                       |           0                       |           0                       |           0                       |           0                       |           0                       |           0                       |           0                       |           0                       |           0                       |           0                       |           0                       |           0                       |           0                       |           0                       |           0                       |           0                       |           0                       |           0                       |           0                       |           0                       |           0                       |           0                       |           0                       |           0                       |           0                       |           0                       |           0                       |           0                       |           0                       |           0                       |           0                       |           0                       |           0                       |           0                       |           0                       |           0                       |           0                       |           0                       |           0                       |           0                       |           0                       |           0                       |           0                       |           0                       |           0                       |           0                       |           0                       |           0                       |           0                       |           0                       |           0                       |           0                       |           0                       |           0                       |           0                       |           0                       |           0                       |           0                       |           0                       |           0                       |           0                       |           0                       |           0                       |           0                       |           0                       |           0                       |           0                       |           0                       |           0                       |           0                       |           0                       |           0                       |           0                       |           0                       |           0                       |           0                       |           0                       |           0                       |           0                       |           0                       |           0                       |           0                       |           0                       |           0                       |           0                       |           0                       |           0                       |           0                       |           0                       |           0                       |           0                       |           0                       |           0                       |           0                       |           0                       |           0                       |           0                       |           0                       |           0                       |           0                       |           0                       |           0                       |           0                       |           0                       |           0                       |           0                       |           0                       |           0                       |           0                       |           0                       |           0                       |           0                       |           0                       |           0                       |           0                       |           0                       |           0                       |           0                       |           0                       |           0                       |           0                       |           0                       |           0                       |           0                       |           0                       |           0                       |           0                       |           0                       |           0                       |           0                       |           0                       |           0                       |           0                       |           0                       |           0                       |           0                       |           0                       |           0                       |           0                       # Ticks queued in GM pipes ordered response buffer (Unspecified)
system.cpu1.gmToCompleteLatency::overflows            0                       # Ticks queued in GM pipes ordered response buffer (Unspecified)
system.cpu1.gmToCompleteLatency::min_value            0                       # Ticks queued in GM pipes ordered response buffer (Unspecified)
system.cpu1.gmToCompleteLatency::max_value            0                       # Ticks queued in GM pipes ordered response buffer (Unspecified)
system.cpu1.gmToCompleteLatency::total              0                       # Ticks queued in GM pipes ordered response buffer (Unspecified)
system.cpu1.coalsrLineAddresses::bucket_size            1                       # Number of cache lines for coalesced request (Unspecified)
system.cpu1.coalsrLineAddresses::min_bucket            0                       # Number of cache lines for coalesced request (Unspecified)
system.cpu1.coalsrLineAddresses::max_bucket           20                       # Number of cache lines for coalesced request (Unspecified)
system.cpu1.coalsrLineAddresses::samples        31574                       # Number of cache lines for coalesced request (Unspecified)
system.cpu1.coalsrLineAddresses::mean               0                       # Number of cache lines for coalesced request (Unspecified)
system.cpu1.coalsrLineAddresses::stdev              0                       # Number of cache lines for coalesced request (Unspecified)
system.cpu1.coalsrLineAddresses::underflows            0      0.00%      0.00% # Number of cache lines for coalesced request (Unspecified)
system.cpu1.coalsrLineAddresses          |       31574    100.00%    100.00% |           0      0.00%    100.00% |           0      0.00%    100.00% |           0      0.00%    100.00% |           0      0.00%    100.00% |           0      0.00%    100.00% |           0      0.00%    100.00% |           0      0.00%    100.00% |           0      0.00%    100.00% |           0      0.00%    100.00% |           0      0.00%    100.00% |           0      0.00%    100.00% |           0      0.00%    100.00% |           0      0.00%    100.00% |           0      0.00%    100.00% |           0      0.00%    100.00% |           0      0.00%    100.00% |           0      0.00%    100.00% |           0      0.00%    100.00% |           0      0.00%    100.00% |           0      0.00%    100.00% # Number of cache lines for coalesced request (Unspecified)
system.cpu1.coalsrLineAddresses::overflows            0      0.00%    100.00% # Number of cache lines for coalesced request (Unspecified)
system.cpu1.coalsrLineAddresses::min_value            0                       # Number of cache lines for coalesced request (Unspecified)
system.cpu1.coalsrLineAddresses::max_value            0                       # Number of cache lines for coalesced request (Unspecified)
system.cpu1.coalsrLineAddresses::total          31574                       # Number of cache lines for coalesced request (Unspecified)
system.cpu1.shaderActiveTicks              1635169997                       # Total ticks that any CU attached to this shader is active (Unspecified)
system.cpu1.vectorInstSrcOperand::0            151495                       # vector instruction source operand distribution (Unspecified)
system.cpu1.vectorInstSrcOperand::1            116208                       # vector instruction source operand distribution (Unspecified)
system.cpu1.vectorInstSrcOperand::2            137450                       # vector instruction source operand distribution (Unspecified)
system.cpu1.vectorInstSrcOperand::3                 0                       # vector instruction source operand distribution (Unspecified)
system.cpu1.vectorInstDstOperand::0            151819                       # vector instruction destination operand distribution (Unspecified)
system.cpu1.vectorInstDstOperand::1            253334                       # vector instruction destination operand distribution (Unspecified)
system.cpu1.vectorInstDstOperand::2                 0                       # vector instruction destination operand distribution (Unspecified)
system.cpu1.vectorInstDstOperand::3                 0                       # vector instruction destination operand distribution (Unspecified)
system.cpu1.CUs0.vALUInsts                      65284                       # Number of vector ALU insts issued. (Unspecified)
system.cpu1.CUs0.vALUInstsPerWF            103.625397                       # The avg. number of vector ALU insts issued per-wavefront. (Unspecified)
system.cpu1.CUs0.sALUInsts                      10444                       # Number of scalar ALU insts issued. (Unspecified)
system.cpu1.CUs0.sALUInstsPerWF             16.577778                       # The avg. number of scalar ALU insts issued per-wavefront. (Unspecified)
system.cpu1.CUs0.instCyclesVALU                 65284                       # Number of cycles needed to execute VALU insts. (Unspecified)
system.cpu1.CUs0.instCyclesSALU                 10444                       # Number of cycles needed to execute SALU insts. (Unspecified)
system.cpu1.CUs0.threadCyclesVALU             4177816                       # Number of thread cycles used to execute vector ALU ops. Similar to instCyclesVALU but multiplied by the number of active threads. (Unspecified)
system.cpu1.CUs0.vALUUtilization            99.991384                       # Percentage of active vector ALU threads in a wave. (Unspecified)
system.cpu1.CUs0.ldsNoFlatInsts                     0                       # Number of LDS insts issued, not including FLAT accesses that resolve to LDS. (Unspecified)
system.cpu1.CUs0.ldsNoFlatInstsPerWF                0                       # The avg. number of LDS insts (not including FLAT accesses that resolve to LDS) per-wavefront. (Unspecified)
system.cpu1.CUs0.flatVMemInsts                   7844                       # The number of FLAT insts that resolve to vmem issued. (Unspecified)
system.cpu1.CUs0.flatVMemInstsPerWF         12.450794                       # The average number of FLAT insts that resolve to vmem issued per-wavefront. (Unspecified)
system.cpu1.CUs0.flatLDSInsts                       0                       # The number of FLAT insts that resolve to LDS issued. (Unspecified)
system.cpu1.CUs0.flatLDSInstsPerWF                  0                       # The average number of FLAT insts that resolve to LDS issued per-wavefront. (Unspecified)
system.cpu1.CUs0.vectorMemWrites                    0                       # Number of vector mem write insts (excluding FLAT insts). (Unspecified)
system.cpu1.CUs0.vectorMemWritesPerWF               0                       # The average number of vector mem write insts (excluding FLAT insts) per-wavefront. (Unspecified)
system.cpu1.CUs0.vectorMemReads                     0                       # Number of vector mem read insts (excluding FLAT insts). (Unspecified)
system.cpu1.CUs0.vectorMemReadsPerWF                0                       # The avg. number of vector mem read insts (excluding FLAT insts) per-wavefront. (Unspecified)
system.cpu1.CUs0.scalarMemWrites                    0                       # Number of scalar mem write insts. (Unspecified)
system.cpu1.CUs0.scalarMemWritesPerWF               0                       # The average number of scalar mem write insts per-wavefront. (Unspecified)
system.cpu1.CUs0.scalarMemReads                  2764                       # Number of scalar mem read insts. (Unspecified)
system.cpu1.CUs0.scalarMemReadsPerWF         4.387302                       # The average number of scalar mem read insts per-wavefront. (Unspecified)
system.cpu1.CUs0.vectorMemReadsPerKiloInst            0                       # Number of vector mem reads per kilo-instruction (Unspecified)
system.cpu1.CUs0.vectorMemWritesPerKiloInst            0                       # Number of vector mem writes per kilo-instruction (Unspecified)
system.cpu1.CUs0.vectorMemInstsPerKiloInst            0                       # Number of vector mem insts per kilo-instruction (Unspecified)
system.cpu1.CUs0.scalarMemReadsPerKiloInst    27.541402                       # Number of scalar mem reads per kilo-instruction (Unspecified)
system.cpu1.CUs0.scalarMemWritesPerKiloInst            0                       # Number of scalar mem writes per kilo-instruction (Unspecified)
system.cpu1.CUs0.scalarMemInstsPerKiloInst    27.541402                       # Number of scalar mem insts per kilo-instruction (Unspecified)
system.cpu1.CUs0.instCyclesVMemPerSimd::0         2988                       # Number of cycles to send address, command, data from VRF to vector memory unit, per SIMD (Unspecified)
system.cpu1.CUs0.instCyclesVMemPerSimd::1         2982                       # Number of cycles to send address, command, data from VRF to vector memory unit, per SIMD (Unspecified)
system.cpu1.CUs0.instCyclesVMemPerSimd::2         2898                       # Number of cycles to send address, command, data from VRF to vector memory unit, per SIMD (Unspecified)
system.cpu1.CUs0.instCyclesVMemPerSimd::3         2898                       # Number of cycles to send address, command, data from VRF to vector memory unit, per SIMD (Unspecified)
system.cpu1.CUs0.instCyclesScMemPerSimd::0          648                       # Number of cycles to send address, command, data from SRF to scalar memory unit, per SIMD (Unspecified)
system.cpu1.CUs0.instCyclesScMemPerSimd::1          720                       # Number of cycles to send address, command, data from SRF to scalar memory unit, per SIMD (Unspecified)
system.cpu1.CUs0.instCyclesScMemPerSimd::2          704                       # Number of cycles to send address, command, data from SRF to scalar memory unit, per SIMD (Unspecified)
system.cpu1.CUs0.instCyclesScMemPerSimd::3          692                       # Number of cycles to send address, command, data from SRF to scalar memory unit, per SIMD (Unspecified)
system.cpu1.CUs0.instCyclesLdsPerSimd::0            0                       # Number of cycles to send address, command, data from VRF to LDS unit, per SIMD (Unspecified)
system.cpu1.CUs0.instCyclesLdsPerSimd::1            0                       # Number of cycles to send address, command, data from VRF to LDS unit, per SIMD (Unspecified)
system.cpu1.CUs0.instCyclesLdsPerSimd::2            0                       # Number of cycles to send address, command, data from VRF to LDS unit, per SIMD (Unspecified)
system.cpu1.CUs0.instCyclesLdsPerSimd::3            0                       # Number of cycles to send address, command, data from VRF to LDS unit, per SIMD (Unspecified)
system.cpu1.CUs0.globalReads                     3922                       # Number of reads to the global segment (Unspecified)
system.cpu1.CUs0.globalWrites                    3922                       # Number of writes to the global segment (Unspecified)
system.cpu1.CUs0.globalMemInsts                  7844                       # Number of memory instructions sent to the global segment (Unspecified)
system.cpu1.CUs0.argReads                           0                       # Number of reads to the arg segment (Unspecified)
system.cpu1.CUs0.argWrites                          0                       # NUmber of writes to the arg segment (Unspecified)
system.cpu1.CUs0.argMemInsts                        0                       # Number of memory instructions sent to the arg segment (Unspecified)
system.cpu1.CUs0.spillReads                         0                       # Number of reads to the spill segment (Unspecified)
system.cpu1.CUs0.spillWrites                        0                       # Number of writes to the spill segment (Unspecified)
system.cpu1.CUs0.spillMemInsts                      0                       # Number of memory instructions sent to the spill segment (Unspecified)
system.cpu1.CUs0.groupReads                         0                       # Number of reads to the group segment (Unspecified)
system.cpu1.CUs0.groupWrites                        0                       # Number of writes to the group segment (Unspecified)
system.cpu1.CUs0.groupMemInsts                      0                       # Number of memory instructions sent to the group segment (Unspecified)
system.cpu1.CUs0.privReads                          0                       # Number of reads to the private segment (Unspecified)
system.cpu1.CUs0.privWrites                         0                       # Number of writes to the private segment (Unspecified)
system.cpu1.CUs0.privMemInsts                       0                       # Number of memory instructions sent to the private segment (Unspecified)
system.cpu1.CUs0.readonlyReads                      0                       # Number of reads to the readonly segment (Unspecified)
system.cpu1.CUs0.readonlyWrites                     0                       # Number of memory instructions sent to the readonly segment (Unspecified)
system.cpu1.CUs0.readonlyMemInsts                   0                       # Number of memory instructions sent to the readonly segment (Unspecified)
system.cpu1.CUs0.kernargReads                       0                       # Number of reads sent to the kernarg segment (Unspecified)
system.cpu1.CUs0.kernargWrites                      0                       # Number of memory instructions sent to the kernarg segment (Unspecified)
system.cpu1.CUs0.kernargMemInsts                    0                       # Number of memory instructions sent to the kernarg segment (Unspecified)
system.cpu1.CUs0.waveLevelParallelism::samples          630                       # wave level parallelism: count of active waves at wave launch (Unspecified)
system.cpu1.CUs0.waveLevelParallelism::mean    10.590476                       # wave level parallelism: count of active waves at wave launch (Unspecified)
system.cpu1.CUs0.waveLevelParallelism::stdev     4.232575                       # wave level parallelism: count of active waves at wave launch (Unspecified)
system.cpu1.CUs0.waveLevelParallelism::underflows            0      0.00%      0.00% # wave level parallelism: count of active waves at wave launch (Unspecified)
system.cpu1.CUs0.waveLevelParallelism::0            3      0.48%      0.48% # wave level parallelism: count of active waves at wave launch (Unspecified)
system.cpu1.CUs0.waveLevelParallelism::1            3      0.48%      0.95% # wave level parallelism: count of active waves at wave launch (Unspecified)
system.cpu1.CUs0.waveLevelParallelism::2            3      0.48%      1.43% # wave level parallelism: count of active waves at wave launch (Unspecified)
system.cpu1.CUs0.waveLevelParallelism::3          118     18.73%     20.16% # wave level parallelism: count of active waves at wave launch (Unspecified)
system.cpu1.CUs0.waveLevelParallelism::4            1      0.16%     20.32% # wave level parallelism: count of active waves at wave launch (Unspecified)
system.cpu1.CUs0.waveLevelParallelism::5            1      0.16%     20.48% # wave level parallelism: count of active waves at wave launch (Unspecified)
system.cpu1.CUs0.waveLevelParallelism::6            2      0.32%     20.79% # wave level parallelism: count of active waves at wave launch (Unspecified)
system.cpu1.CUs0.waveLevelParallelism::7            1      0.16%     20.95% # wave level parallelism: count of active waves at wave launch (Unspecified)
system.cpu1.CUs0.waveLevelParallelism::8            1      0.16%     21.11% # wave level parallelism: count of active waves at wave launch (Unspecified)
system.cpu1.CUs0.waveLevelParallelism::9           29      4.60%     25.71% # wave level parallelism: count of active waves at wave launch (Unspecified)
system.cpu1.CUs0.waveLevelParallelism::10           39      6.19%     31.90% # wave level parallelism: count of active waves at wave launch (Unspecified)
system.cpu1.CUs0.waveLevelParallelism::11           41      6.51%     38.41% # wave level parallelism: count of active waves at wave launch (Unspecified)
system.cpu1.CUs0.waveLevelParallelism::12          124     19.68%     58.10% # wave level parallelism: count of active waves at wave launch (Unspecified)
system.cpu1.CUs0.waveLevelParallelism::13           96     15.24%     73.33% # wave level parallelism: count of active waves at wave launch (Unspecified)
system.cpu1.CUs0.waveLevelParallelism::14           85     13.49%     86.83% # wave level parallelism: count of active waves at wave launch (Unspecified)
system.cpu1.CUs0.waveLevelParallelism::15           83     13.17%    100.00% # wave level parallelism: count of active waves at wave launch (Unspecified)
system.cpu1.CUs0.waveLevelParallelism::16            0      0.00%    100.00% # wave level parallelism: count of active waves at wave launch (Unspecified)
system.cpu1.CUs0.waveLevelParallelism::17            0      0.00%    100.00% # wave level parallelism: count of active waves at wave launch (Unspecified)
system.cpu1.CUs0.waveLevelParallelism::18            0      0.00%    100.00% # wave level parallelism: count of active waves at wave launch (Unspecified)
system.cpu1.CUs0.waveLevelParallelism::19            0      0.00%    100.00% # wave level parallelism: count of active waves at wave launch (Unspecified)
system.cpu1.CUs0.waveLevelParallelism::20            0      0.00%    100.00% # wave level parallelism: count of active waves at wave launch (Unspecified)
system.cpu1.CUs0.waveLevelParallelism::21            0      0.00%    100.00% # wave level parallelism: count of active waves at wave launch (Unspecified)
system.cpu1.CUs0.waveLevelParallelism::22            0      0.00%    100.00% # wave level parallelism: count of active waves at wave launch (Unspecified)
system.cpu1.CUs0.waveLevelParallelism::23            0      0.00%    100.00% # wave level parallelism: count of active waves at wave launch (Unspecified)
system.cpu1.CUs0.waveLevelParallelism::24            0      0.00%    100.00% # wave level parallelism: count of active waves at wave launch (Unspecified)
system.cpu1.CUs0.waveLevelParallelism::25            0      0.00%    100.00% # wave level parallelism: count of active waves at wave launch (Unspecified)
system.cpu1.CUs0.waveLevelParallelism::26            0      0.00%    100.00% # wave level parallelism: count of active waves at wave launch (Unspecified)
system.cpu1.CUs0.waveLevelParallelism::27            0      0.00%    100.00% # wave level parallelism: count of active waves at wave launch (Unspecified)
system.cpu1.CUs0.waveLevelParallelism::28            0      0.00%    100.00% # wave level parallelism: count of active waves at wave launch (Unspecified)
system.cpu1.CUs0.waveLevelParallelism::29            0      0.00%    100.00% # wave level parallelism: count of active waves at wave launch (Unspecified)
system.cpu1.CUs0.waveLevelParallelism::30            0      0.00%    100.00% # wave level parallelism: count of active waves at wave launch (Unspecified)
system.cpu1.CUs0.waveLevelParallelism::31            0      0.00%    100.00% # wave level parallelism: count of active waves at wave launch (Unspecified)
system.cpu1.CUs0.waveLevelParallelism::32            0      0.00%    100.00% # wave level parallelism: count of active waves at wave launch (Unspecified)
system.cpu1.CUs0.waveLevelParallelism::33            0      0.00%    100.00% # wave level parallelism: count of active waves at wave launch (Unspecified)
system.cpu1.CUs0.waveLevelParallelism::34            0      0.00%    100.00% # wave level parallelism: count of active waves at wave launch (Unspecified)
system.cpu1.CUs0.waveLevelParallelism::35            0      0.00%    100.00% # wave level parallelism: count of active waves at wave launch (Unspecified)
system.cpu1.CUs0.waveLevelParallelism::36            0      0.00%    100.00% # wave level parallelism: count of active waves at wave launch (Unspecified)
system.cpu1.CUs0.waveLevelParallelism::37            0      0.00%    100.00% # wave level parallelism: count of active waves at wave launch (Unspecified)
system.cpu1.CUs0.waveLevelParallelism::38            0      0.00%    100.00% # wave level parallelism: count of active waves at wave launch (Unspecified)
system.cpu1.CUs0.waveLevelParallelism::39            0      0.00%    100.00% # wave level parallelism: count of active waves at wave launch (Unspecified)
system.cpu1.CUs0.waveLevelParallelism::40            0      0.00%    100.00% # wave level parallelism: count of active waves at wave launch (Unspecified)
system.cpu1.CUs0.waveLevelParallelism::overflows            0      0.00%    100.00% # wave level parallelism: count of active waves at wave launch (Unspecified)
system.cpu1.CUs0.waveLevelParallelism::min_value            0                       # wave level parallelism: count of active waves at wave launch (Unspecified)
system.cpu1.CUs0.waveLevelParallelism::max_value           15                       # wave level parallelism: count of active waves at wave launch (Unspecified)
system.cpu1.CUs0.waveLevelParallelism::total          630                       # wave level parallelism: count of active waves at wave launch (Unspecified)
system.cpu1.CUs0.tlbRequests                   501872                       # number of uncoalesced requests (Unspecified)
system.cpu1.CUs0.tlbCycles               407516954296                       # total number of cycles for all uncoalesced requests (Unspecified)
system.cpu1.CUs0.tlbLatency              811993.803791                       # Avg. translation latency for data translations (Unspecified)
system.cpu1.CUs0.hitsPerTLBLevel::page_table        99960                       # TLB hits distribution (0 for page table, x for Lx-TLB) (Unspecified)
system.cpu1.CUs0.hitsPerTLBLevel::L1_TLB       392120                       # TLB hits distribution (0 for page table, x for Lx-TLB) (Unspecified)
system.cpu1.CUs0.hitsPerTLBLevel::L2_TLB         9792                       # TLB hits distribution (0 for page table, x for Lx-TLB) (Unspecified)
system.cpu1.CUs0.hitsPerTLBLevel::L3_TLB            0                       # TLB hits distribution (0 for page table, x for Lx-TLB) (Unspecified)
system.cpu1.CUs0.ldsBankAccesses                    0                       # Total number of LDS bank accesses (Unspecified)
system.cpu1.CUs0.ldsBankConflictDist::samples            0                       # Number of bank conflicts per LDS memory packet (Unspecified)
system.cpu1.CUs0.ldsBankConflictDist::mean          nan                       # Number of bank conflicts per LDS memory packet (Unspecified)
system.cpu1.CUs0.ldsBankConflictDist::stdev          nan                       # Number of bank conflicts per LDS memory packet (Unspecified)
system.cpu1.CUs0.ldsBankConflictDist::underflows            0                       # Number of bank conflicts per LDS memory packet (Unspecified)
system.cpu1.CUs0.ldsBankConflictDist::0-1            0                       # Number of bank conflicts per LDS memory packet (Unspecified)
system.cpu1.CUs0.ldsBankConflictDist::2-3            0                       # Number of bank conflicts per LDS memory packet (Unspecified)
system.cpu1.CUs0.ldsBankConflictDist::4-5            0                       # Number of bank conflicts per LDS memory packet (Unspecified)
system.cpu1.CUs0.ldsBankConflictDist::6-7            0                       # Number of bank conflicts per LDS memory packet (Unspecified)
system.cpu1.CUs0.ldsBankConflictDist::8-9            0                       # Number of bank conflicts per LDS memory packet (Unspecified)
system.cpu1.CUs0.ldsBankConflictDist::10-11            0                       # Number of bank conflicts per LDS memory packet (Unspecified)
system.cpu1.CUs0.ldsBankConflictDist::12-13            0                       # Number of bank conflicts per LDS memory packet (Unspecified)
[...]
system.Shader.cacheBlockRoundTrip8::overflows            0                       # Coalsr-to-coalsr time for the Nth cache block in an inst (Unspecified)
system.Shader.cacheBlockRoundTrip8::min_value            0                       # Coalsr-to-coalsr time for the Nth cache block in an inst (Unspecified)
system.Shader.cacheBlockRoundTrip8::max_value            0                       # Coalsr-to-coalsr time for the Nth cache block in an inst (Unspecified)
system.Shader.cacheBlockRoundTrip8::total            0                       # Coalsr-to-coalsr time for the Nth cache block in an inst (Unspecified)
system.Shader.cacheBlockRoundTrip9::bucket_size        10000                       # Coalsr-to-coalsr time for the Nth cache block in an inst (Unspecified)
system.Shader.cacheBlockRoundTrip9::min_bucket            0                       # Coalsr-to-coalsr time for the Nth cache block in an inst (Unspecified)
system.Shader.cacheBlockRoundTrip9::max_bucket      1600000                       # Coalsr-to-coalsr time for the Nth cache block in an inst (Unspecified)
system.Shader.cacheBlockRoundTrip9::samples            0                       # Coalsr-to-coalsr time for the Nth cache block in an inst (Unspecified)
system.Shader.cacheBlockRoundTrip9::mean          nan                       # Coalsr-to-coalsr time for the Nth cache block in an inst (Unspecified)
system.Shader.cacheBlockRoundTrip9::stdev          nan                       # Coalsr-to-coalsr time for the Nth cache block in an inst (Unspecified)
system.Shader.cacheBlockRoundTrip9::underflows            0                       # Coalsr-to-coalsr time for the Nth cache block in an inst (Unspecified)
system.Shader.cacheBlockRoundTrip9       |           0                       |           0                       |           0                       |           0                       |           0                       |           0                       |           0                       |           0                       |           0                       |           0                       |           0                       |           0                       |           0                       |           0                       |           0                       |           0                       |           0                       |           0                       |           0                       |           0                       |           0                       |           0                       |           0                       |           0                       |           0                       |           0                       |           0                       |           0                       |           0                       |           0                       |           0                       |           0                       |           0                       |           0                       |           0                       |           0                       |           0                       |           0                       |           0                       |           0                       |           0                       |           0                       |           0                       |           0                       |           0                       |           0                       |           0                       |           0                       |           0                       |           0                       |           0                       |           0                       |           0                       |           0                       |           0                       |           0                       |           0                       |           0                       |           0                       |           0                       |           0                       |           0                       |           0                       |           0                       |           0                       |           0                       |           0                       |           0                       |           0                       |           0                       |           0                       |           0                       |           0                       |           0                       |           0                       |           0                       |           0                       |           0                       |           0                       |           0                       |           0                       |           0                       |           0                       |           0                       |           0                       |           0                       |           0                       |           0                       |           0                       |           0                       |           0                       |           0                       |           0                       |           0                       |           0                       |           0                       |           0                       |           0                       |           0                       |           0                       |           0                       |           0                       |           0                       |           0                       |           0                       |           0                       |           0                       |           0                       |           0                       |           0                       |           0                       |           0                       |           0                       |           0                       |           0                       |           0                       |           0                       |           0                       |           0                       |           0                       |           0                       |           0                       |           0                       |           0                       |           0                       |           0                       |           0                       |           0                       |           0                       |           0                       |           0                       |           0                       |           0                       |           0                       |           0                       |           0                       |           0                       |           0                       |           0                       |           0                       |           0                       |           0                       |           0                       |           0                       |           0                       |           0                       |           0                       |           0                       |           0                       |           0                       |           0                       |           0                       |           0                       |           0                       |           0                       |           0                       |           0                       |           0                       |           0                       |           0                       |           0                       # Coalsr-to-coalsr time for the Nth cache block in an inst (Unspecified)
system.Shader.cacheBlockRoundTrip9::overflows            0                       # Coalsr-to-coalsr time for the Nth cache block in an inst (Unspecified)
system.Shader.cacheBlockRoundTrip9::min_value            0                       # Coalsr-to-coalsr time for the Nth cache block in an inst (Unspecified)
system.Shader.cacheBlockRoundTrip9::max_value            0                       # Coalsr-to-coalsr time for the Nth cache block in an inst (Unspecified)
system.Shader.cacheBlockRoundTrip9::total            0                       # Coalsr-to-coalsr time for the Nth cache block in an inst (Unspecified)
system.l1_coalescer0.coalesced_accesses          7844                       # Number of coalesced TLB accesses (Unspecified)
system.l1_coalescer0.latency               812.651274                       # Avg. latency over all incoming pkts (Unspecified)
system.l1_coalescer0.local_cycles           407846920                       # Number of cycles spent in queue for all incoming reqs (Unspecified)
system.l1_coalescer0.local_latency         546.455160                       # Avg. latency over all incoming pkts (Unspecified)
system.l1_coalescer0.local_queuing_cycles    274250544                       # Number of cycles spent in queue for all incoming reqs (Unspecified)
system.l1_coalescer0.queuing_cycles         274250544                       # Number of cycles spent in queue (Unspecified)
system.l1_coalescer0.uncoalesced_accesses       501872                       # Number of uncoalesced TLB accesses (Unspecified)
system.l1_coalescer1.coalesced_accesses          7840                       # Number of coalesced TLB accesses (Unspecified)
system.l1_coalescer1.latency               813.631122                       # Avg. latency over all incoming pkts (Unspecified)
system.l1_coalescer1.local_cycles           408247552                       # Number of cycles spent in queue for all incoming reqs (Unspecified)
system.l1_coalescer1.local_latency         551.068240                       # Avg. latency over all incoming pkts (Unspecified)
system.l1_coalescer1.local_queuing_cycles    276504000                       # Number of cycles spent in queue for all incoming reqs (Unspecified)
system.l1_coalescer1.queuing_cycles         276504000                       # Number of cycles spent in queue (Unspecified)
system.l1_coalescer1.uncoalesced_accesses       501760                       # Number of uncoalesced TLB accesses (Unspecified)
system.l1_coalescer2.coalesced_accesses          7946                       # Number of coalesced TLB accesses (Unspecified)
system.l1_coalescer2.latency               800.491442                       # Avg. latency over all incoming pkts (Unspecified)
system.l1_coalescer2.local_cycles           407085120                       # Number of cycles spent in queue for all incoming reqs (Unspecified)
system.l1_coalescer2.local_latency         537.559779                       # Avg. latency over all incoming pkts (Unspecified)
system.l1_coalescer2.local_queuing_cycles    273372800                       # Number of cycles spent in queue for all incoming reqs (Unspecified)
system.l1_coalescer2.queuing_cycles         273372800                       # Number of cycles spent in queue (Unspecified)
system.l1_coalescer2.uncoalesced_accesses       508544                       # Number of uncoalesced TLB accesses (Unspecified)
system.l1_coalescer3.coalesced_accesses          7944                       # Number of coalesced TLB accesses (Unspecified)
system.l1_coalescer3.latency               801.607628                       # Avg. latency over all incoming pkts (Unspecified)
system.l1_coalescer3.local_cycles           407550144                       # Number of cycles spent in queue for all incoming reqs (Unspecified)
system.l1_coalescer3.local_latency         542.598943                       # Avg. latency over all incoming pkts (Unspecified)
system.l1_coalescer3.local_queuing_cycles    275865984                       # Number of cycles spent in queue for all incoming reqs (Unspecified)
system.l1_coalescer3.queuing_cycles         275865984                       # Number of cycles spent in queue (Unspecified)
system.l1_coalescer3.uncoalesced_accesses       508416                       # Number of uncoalesced TLB accesses (Unspecified)
system.l2_coalescer.coalesced_accesses           2904                       # Number of coalesced TLB accesses (Unspecified)
system.l2_coalescer.latency               1216.678934                       # Avg. latency over all incoming pkts (Unspecified)
system.l2_coalescer.local_cycles              8264900                       # Number of cycles spent in queue for all incoming reqs (Unspecified)
system.l2_coalescer.local_latency           95.011482                       # Avg. latency over all incoming pkts (Unspecified)
system.l2_coalescer.local_queuing_cycles       645413                       # Number of cycles spent in queue for all incoming reqs (Unspecified)
system.l2_coalescer.queuing_cycles           41305976                       # Number of cycles spent in queue (Unspecified)
system.l2_coalescer.uncoalesced_accesses         6793                       # Number of uncoalesced TLB accesses (Unspecified)
system.l3_coalescer.coalesced_accesses           1975                       # Number of coalesced TLB accesses (Unspecified)
system.l3_coalescer.latency               1218.505316                       # Avg. latency over all incoming pkts (Unspecified)
system.l3_coalescer.local_cycles              2406548                       # Number of cycles spent in queue for all incoming reqs (Unspecified)
system.l3_coalescer.local_latency                   1                       # Avg. latency over all incoming pkts (Unspecified)
system.l3_coalescer.local_queuing_cycles         1975                       # Number of cycles spent in queue for all incoming reqs (Unspecified)
system.l3_coalescer.queuing_cycles             374712                       # Number of cycles spent in queue (Unspecified)
system.l3_coalescer.uncoalesced_accesses         1975                       # Number of uncoalesced TLB accesses (Unspecified)
system.scalar_coalescer.coalesced_accesses         6741                       # Number of coalesced TLB accesses (Unspecified)
system.scalar_coalescer.latency             28.765714                       # Avg. latency over all incoming pkts (Unspecified)
system.scalar_coalescer.local_cycles           324017                       # Number of cycles spent in queue for all incoming reqs (Unspecified)
system.scalar_coalescer.local_latency       25.945046                       # Avg. latency over all incoming pkts (Unspecified)
system.scalar_coalescer.local_queuing_cycles       292245                       # Number of cycles spent in queue for all incoming reqs (Unspecified)
system.scalar_coalescer.queuing_cycles         292245                       # Number of cycles spent in queue (Unspecified)
system.scalar_coalescer.uncoalesced_accesses        11264                       # Number of uncoalesced TLB accesses (Unspecified)
system.sqc_coalescer.coalesced_accesses         22171                       # Number of coalesced TLB accesses (Unspecified)
system.sqc_coalescer.latency                 4.074446                       # Avg. latency over all incoming pkts (Unspecified)
system.sqc_coalescer.local_cycles              172455                       # Number of cycles spent in queue for all incoming reqs (Unspecified)
system.sqc_coalescer.local_latency           1.609625                       # Avg. latency over all incoming pkts (Unspecified)
system.sqc_coalescer.local_queuing_cycles        68129                       # Number of cycles spent in queue for all incoming reqs (Unspecified)
system.sqc_coalescer.queuing_cycles             68129                       # Number of cycles spent in queue (Unspecified)
system.sqc_coalescer.uncoalesced_accesses        42326                       # Number of uncoalesced TLB accesses (Unspecified)

---------- End Simulation Statistics   ----------
