
---------- Begin Simulation Statistics ----------
simSeconds                                  16.610438                       # Number of seconds simulated (Second)
simTicks                                 16610438185500                       # Number of ticks simulated (Tick)
finalTick                                16610438185500                       # Number of ticks from beginning of simulation (restored from checkpoints and never reset) (Tick)
simFreq                                  1000000000000                       # The number of ticks per simulated second ((Tick/Second))
hostSeconds                                     75.66                       # Real time elapsed on the host (Second)
hostTickRate                             219552528183                       # The number of ticks simulated per host second (ticks/s) ((Tick/Second))
hostMemory                                   23229580                       # Number of bytes of host memory used (Byte)
simInsts                                  12331611608                       # Number of instructions simulated (Count)
simOps                                    12331611608                       # Number of ops (including micro ops) simulated (Count)
hostInstRate                                162995588                       # Simulator instruction rate (inst/s) ((Count/Second))
hostOpRate                                  162995564                       # Simulator op (including micro ops) rate (op/s) ((Count/Second))
system.clk_domain.clock                          1000                       # Clock period in ticks (Tick)
system.cpu0.numCycles                     96129577990                       # Number of cpu cycles simulated (Cycle)
system.cpu0.numWorkItemsStarted                     0                       # Number of work items this cpu started (Count)
system.cpu0.numWorkItemsCompleted                   0                       # Number of work items this cpu completed (Count)
system.cpu0.committedInsts                12331611608                       # Number of instructions committed (Count)
system.cpu0.numVMExits                        2016935                       # total number of KVM exits (Count)
system.cpu0.numVMHalfEntries                    15953                       # number of KVM entries to finalize pending operations (Count)
system.cpu0.numExitSignal                     1696877                       # exits due to signal delivery (Count)
system.cpu0.numMMIO                             85051                       # number of VM exits due to memory mapped IO (Count)
system.cpu0.numCoalescedMMIO                        0                       # number of coalesced memory mapped IO requests (Count)
system.cpu0.numIO                              226625                       # number of VM exits due to legacy IO (Count)
system.cpu0.numHalt                              1583                       # number of VM exits due to wait for interrupt instructions (Count)
system.cpu0.numInterrupts                        9661                       # number of interrupts delivered (Count)
system.cpu0.numHypercalls                           0                       # number of hypercalls (Count)
system.cpu0.interrupts.clk_domain.clock          8000                       # Clock period in ticks (Tick)
system.cpu0.mmu.dtb.rdAccesses                      0                       # TLB accesses on read requests (Count)
system.cpu0.mmu.dtb.wrAccesses                      0                       # TLB accesses on write requests (Count)
system.cpu0.mmu.dtb.rdMisses                        0                       # TLB misses on read requests (Count)
system.cpu0.mmu.dtb.wrMisses                        0                       # TLB misses on write requests (Count)
system.cpu0.mmu.dtb.walker.power_state.pwrStateResidencyTicks::UNDEFINED 16610438185500                       # Cumulative time (in ticks) in various power states (Tick)
system.cpu0.mmu.itb.rdAccesses                      0                       # TLB accesses on read requests (Count)
system.cpu0.mmu.itb.wrAccesses                      0                       # TLB accesses on write requests (Count)
system.cpu0.mmu.itb.rdMisses                        0                       # TLB misses on read requests (Count)
system.cpu0.mmu.itb.wrMisses                        0                       # TLB misses on write requests (Count)
system.cpu0.mmu.itb.walker.power_state.pwrStateResidencyTicks::UNDEFINED 16610438185500                       # Cumulative time (in ticks) in various power states (Tick)
system.cpu0.power_state.pwrStateResidencyTicks::ON 16610438185500                       # Cumulative time (in ticks) in various power states (Tick)
system.cpu0.thread_0.numInsts                       0                       # Number of Instructions committed (Count)
system.cpu0.thread_0.numOps                         0                       # Number of Ops committed (Count)
system.cpu0.thread_0.numMemRefs                     0                       # Number of Memory References (Count)
system.cpu1.allLatencyDist::bucket_size         10000                       # delay distribution for all (Unspecified)
system.cpu1.allLatencyDist::min_bucket              0                       # delay distribution for all (Unspecified)
system.cpu1.allLatencyDist::max_bucket        1600000                       # delay distribution for all (Unspecified)
system.cpu1.allLatencyDist::samples             31574                       # delay distribution for all (Unspecified)
system.cpu1.allLatencyDist::mean         1183377.620827                       # delay distribution for all (Unspecified)
system.cpu1.allLatencyDist::stdev        958409.458843                       # delay distribution for all (Unspecified)
system.cpu1.allLatencyDist::underflows              0      0.00%      0.00% # delay distribution for all (Unspecified)
system.cpu1.allLatencyDist               |           0      0.00%      0.00% |           0      0.00%      0.00% |           0      0.00%      0.00% |           0      0.00%      0.00% |           0      0.00%      0.00% |           0      0.00%      0.00% |           0      0.00%      0.00% |           0      0.00%      0.00% |           0      0.00%      0.00% |           0      0.00%      0.00% |        7692     24.36%     24.36% |         511      1.62%     25.98% |         313      0.99%     26.97% |         160      0.51%     27.48% |         102      0.32%     27.80% |         335      1.06%     28.86% |         449      1.42%     30.28% |         262      0.83%     31.11% |          84      0.27%     31.38% |         264      0.84%     32.22% |         167      0.53%     32.75% |         234      0.74%     33.49% |         151      0.48%     33.96% |         111      0.35%     34.32% |          52      0.16%     34.48% |          46      0.15%     34.63% |          43      0.14%     34.76% |          39      0.12%     34.89% |          45      0.14%     35.03% |          98      0.31%     35.34% |          27      0.09%     35.42% |         146      0.46%     35.89% |          64      0.20%     36.09% |          73      0.23%     36.32% |          32      0.10%     36.42% |          49      0.16%     36.58% |          31      0.10%     36.68% |          18      0.06%     36.73% |         103      0.33%     37.06% |          14      0.04%     37.10% |          21      0.07%     37.17% |          21      0.07%     37.24% |           9      0.03%     37.26% |          15      0.05%     37.31% |           9      0.03%     37.34% |          11      0.03%     37.38% |           6      0.02%     37.39% |           4      0.01%     37.41% |           9      0.03%     37.44% |           1      0.00%     37.44% |           3      0.01%     37.45% |           8      0.03%     37.47% |           5      0.02%     37.49% |           2      0.01%     37.50% |           0      0.00%     37.50% |           1      0.00%     37.50% |           0      0.00%     37.50% |           0      0.00%     37.50% |           6      0.02%     37.52% |           6      0.02%     37.54% |           0      0.00%     37.54% |           0      0.00%     37.54% |           3      0.01%     37.55% |           3      0.01%     37.56% |           1      0.00%     37.56% |           0      0.00%     37.56% |           0      0.00%     37.56% |           0      0.00%     37.56% |           0      0.00%     37.56% |           3      0.01%     37.57% |           0      0.00%     37.57% |           0      0.00%     37.57% |           0      0.00%     37.57% |           0      0.00%     37.57% |           0      0.00%     37.57% |           0      0.00%     37.57% |           0      0.00%     37.57% |           0      0.00%     37.57% |           0      0.00%     37.57% |           0      0.00%     37.57% |           0      0.00%     37.57% |           1      0.00%     37.57% |           0      0.00%     37.57% |           0      0.00%     37.57% |           0      0.00%     37.57% |           3      0.01%     37.58% |           1      0.00%     37.58% |           4      0.01%     37.60% |           1      0.00%     37.60% |           0      0.00%     37.60% |           0      0.00%     37.60% |           0      0.00%     37.60% |           1      0.00%     37.60% |           0      0.00%     37.60% |          10      0.03%     37.64% |          11      0.03%     37.67% |           9      0.03%     37.70% |           8      0.03%     37.72% |           2      0.01%     37.73% |           0      0.00%     37.73% |           5      0.02%     37.75% |           0      0.00%     37.75% |           7      0.02%     37.77% |           1      0.00%     37.77% |           3      0.01%     37.78% |           6      0.02%     37.80% |           8      0.03%     37.83% |           5      0.02%     37.84% |          11      0.03%     37.88% |          13      0.04%     37.92% |           5      0.02%     37.93% |           5      0.02%     37.95% |           6      0.02%     37.97% |           6      0.02%     37.99% |          13      0.04%     38.03% |           4      0.01%     38.04% |          13      0.04%     38.08% |          11      0.03%     38.12% |           3      0.01%     38.13% |           9      0.03%     38.15% |          10      0.03%     38.19% |          18      0.06%     38.24% |          78      0.25%     38.49% |          13      0.04%     38.53% |           7      0.02%     38.55% |          71      0.22%     38.78% |          16      0.05%     38.83% |          38      0.12%     38.95% |          22      0.07%     39.02% |          48      0.15%     39.17% |          47      0.15%     39.32% |          70      0.22%     39.54% |          62      0.20%     39.74% |          62      0.20%     39.93% |         112      0.35%     40.29% |         191      0.60%     40.89% |         102      0.32%     41.22% |         148      0.47%     41.69% |          69      0.22%     41.90% |         248      0.79%     42.69% |        1788      5.66%     48.35% |        1930      6.11%     54.47% |         372      1.18%     55.64% |         479      1.52%     57.16% |         615      1.95%     59.11% |         438      1.39%     60.50% |         442      1.40%     61.90% |         700      2.22%     64.11% |         330      1.05%     65.16% |         224      0.71%     65.87% |         257      0.81%     66.68% |         350      1.11%     67.79% |         176      0.56%     68.35% |         138      0.44%     68.78% |         170      0.54%     69.32% |         193      0.61%     69.93% |         132      0.42%     70.35% |         353      1.12%     71.47% |         133      0.42%     71.89% |         295      0.93%     72.83% |          20      0.06%     72.89% # delay distribution for all (Unspecified)
system.cpu1.allLatencyDist::overflows            8560     27.11%    100.00% # delay distribution for all (Unspecified)
system.cpu1.allLatencyDist::min_value          103000                       # delay distribution for all (Unspecified)
system.cpu1.allLatencyDist::max_value         4375000                       # delay distribution for all (Unspecified)
system.cpu1.allLatencyDist::total               31574                       # delay distribution for all (Unspecified)
system.cpu1.loadLatencyDist::bucket_size        10000                       # delay distribution for loads (Unspecified)
system.cpu1.loadLatencyDist::min_bucket             0                       # delay distribution for loads (Unspecified)
system.cpu1.loadLatencyDist::max_bucket       1600000                       # delay distribution for loads (Unspecified)
system.cpu1.loadLatencyDist::samples            15787                       # delay distribution for loads (Unspecified)
system.cpu1.loadLatencyDist::mean        1746950.022170                       # delay distribution for loads (Unspecified)
system.cpu1.loadLatencyDist::stdev       895080.274362                       # delay distribution for loads (Unspecified)
system.cpu1.loadLatencyDist::underflows             0      0.00%      0.00% # delay distribution for loads (Unspecified)
system.cpu1.loadLatencyDist              |           0      0.00%      0.00% |           0      0.00%      0.00% |           0      0.00%      0.00% |           0      0.00%      0.00% |           0      0.00%      0.00% |           0      0.00%      0.00% |           0      0.00%      0.00% |           0      0.00%      0.00% |           0      0.00%      0.00% |           0      0.00%      0.00% |         127      0.80%      0.80% |          27      0.17%      0.98% |         178      1.13%      2.10% |         133      0.84%      2.95% |          28      0.18%      3.12% |          45      0.29%      3.41% |          98      0.62%      4.03% |          34      0.22%      4.24% |          54      0.34%      4.59% |          71      0.45%      5.04% |          90      0.57%      5.61% |         215      1.36%      6.97% |         143      0.91%      7.87% |         102      0.65%      8.52% |          46      0.29%      8.81% |          40      0.25%      9.06% |          39      0.25%      9.31% |          37      0.23%      9.55% |          44      0.28%      9.82% |          98      0.62%     10.45% |          21      0.13%     10.58% |          40      0.25%     10.83% |          56      0.35%     11.19% |          67      0.42%     11.61% |          32      0.20%     11.81% |          48      0.30%     12.12% |          30      0.19%     12.31% |          18      0.11%     12.42% |         103      0.65%     13.07% |           8      0.05%     13.12% |          17      0.11%     13.23% |          21      0.13%     13.37% |           9      0.06%     13.42% |          14      0.09%     13.51% |           9      0.06%     13.57% |           9      0.06%     13.63% |           6      0.04%     13.66% |           2      0.01%     13.68% |           3      0.02%     13.69% |           1      0.01%     13.70% |           3      0.02%     13.72% |           4      0.03%     13.75% |           3      0.02%     13.76% |           0      0.00%     13.76% |           0      0.00%     13.76% |           1      0.01%     13.77% |           0      0.00%     13.77% |           0      0.00%     13.77% |           6      0.04%     13.81% |           6      0.04%     13.85% |           0      0.00%     13.85% |           0      0.00%     13.85% |           3      0.02%     13.87% |           3      0.02%     13.88% |           1      0.01%     13.89% |           0      0.00%     13.89% |           0      0.00%     13.89% |           0      0.00%     13.89% |           0      0.00%     13.89% |           3      0.02%     13.91% |           0      0.00%     13.91% |           0      0.00%     13.91% |           0      0.00%     13.91% |           0      0.00%     13.91% |           0      0.00%     13.91% |           0      0.00%     13.91% |           0      0.00%     13.91% |           0      0.00%     13.91% |           0      0.00%     13.91% |           0      0.00%     13.91% |           0      0.00%     13.91% |           1      0.01%     13.92% |           0      0.00%     13.92% |           0      0.00%     13.92% |           0      0.00%     13.92% |           3      0.02%     13.94% |           1      0.01%     13.94% |           4      0.03%     13.97% |           1      0.01%     13.97% |           0      0.00%     13.97% |           0      0.00%     13.97% |           0      0.00%     13.97% |           1      0.01%     13.98% |           0      0.00%     13.98% |           1      0.01%     13.99% |           7      0.04%     14.03% |           8      0.05%     14.08% |           8      0.05%     14.13% |           2      0.01%     14.14% |           0      0.00%     14.14% |           5      0.03%     14.18% |           0      0.00%     14.18% |           1      0.01%     14.18% |           1      0.01%     14.19% |           3      0.02%     14.21% |           4      0.03%     14.23% |           8      0.05%     14.28% |           3      0.02%     14.30% |           2      0.01%     14.32% |           5      0.03%     14.35% |           3      0.02%     14.37% |           5      0.03%     14.40% |           4      0.03%     14.42% |           6      0.04%     14.46% |          13      0.08%     14.54% |           3      0.02%     14.56% |          12      0.08%     14.64% |          10      0.06%     14.70% |           2      0.01%     14.71% |           7      0.04%     14.76% |           6      0.04%     14.80% |           8      0.05%     14.85% |          67      0.42%     15.27% |           5      0.03%     15.30% |           5      0.03%     15.34% |          71      0.45%     15.79% |          10      0.06%     15.85% |          18      0.11%     15.96% |          16      0.10%     16.06% |          15      0.10%     16.16% |          25      0.16%     16.32% |          25      0.16%     16.48% |          22      0.14%     16.61% |          23      0.15%     16.76% |          39      0.25%     17.01% |          20      0.13%     17.13% |          25      0.16%     17.29% |          46      0.29%     17.58% |          40      0.25%     17.84% |          63      0.40%     18.24% |          65      0.41%     18.65% |          86      0.54%     19.19% |          75      0.48%     19.67% |         356      2.26%     21.92% |         515      3.26%     25.19% |         226      1.43%     26.62% |         262      1.66%     28.28% |         283      1.79%     30.07% |         201      1.27%     31.34% |         174      1.10%     32.44% |         225      1.43%     33.87% |         328      2.08%     35.95% |         155      0.98%     36.93% |         131      0.83%     37.76% |         157      0.99%     38.75% |         193      1.22%     39.98% |         128      0.81%     40.79% |         348      2.20%     42.99% |         133      0.84%     43.83% |         295      1.87%     45.70% |          20      0.13%     45.83% # delay distribution for loads (Unspecified)
system.cpu1.loadLatencyDist::overflows           8552     54.17%    100.00% # delay distribution for loads (Unspecified)
system.cpu1.loadLatencyDist::min_value         104000                       # delay distribution for loads (Unspecified)
system.cpu1.loadLatencyDist::max_value        4375000                       # delay distribution for loads (Unspecified)
system.cpu1.loadLatencyDist::total              15787                       # delay distribution for loads (Unspecified)
system.cpu1.storeLatencyDist::bucket_size        10000                       # delay distribution for stores (Unspecified)
system.cpu1.storeLatencyDist::min_bucket            0                       # delay distribution for stores (Unspecified)
system.cpu1.storeLatencyDist::max_bucket      1600000                       # delay distribution for stores (Unspecified)
system.cpu1.storeLatencyDist::samples           15787                       # delay distribution for stores (Unspecified)
system.cpu1.storeLatencyDist::mean       619805.219484                       # delay distribution for stores (Unspecified)
system.cpu1.storeLatencyDist::stdev      633023.639801                       # delay distribution for stores (Unspecified)
system.cpu1.storeLatencyDist::underflows            0      0.00%      0.00% # delay distribution for stores (Unspecified)
system.cpu1.storeLatencyDist             |           0      0.00%      0.00% |           0      0.00%      0.00% |           0      0.00%      0.00% |           0      0.00%      0.00% |           0      0.00%      0.00% |           0      0.00%      0.00% |           0      0.00%      0.00% |           0      0.00%      0.00% |           0      0.00%      0.00% |           0      0.00%      0.00% |        7565     47.92%     47.92% |         484      3.07%     50.98% |         135      0.86%     51.84% |          27      0.17%     52.01% |          74      0.47%     52.48% |         290      1.84%     54.32% |         351      2.22%     56.54% |         228      1.44%     57.98% |          30      0.19%     58.17% |         193      1.22%     59.40% |          77      0.49%     59.88% |          19      0.12%     60.01% |           8      0.05%     60.06% |           9      0.06%     60.11% |           6      0.04%     60.15% |           6      0.04%     60.19% |           4      0.03%     60.21% |           2      0.01%     60.23% |           1      0.01%     60.23% |           0      0.00%     60.23% |           6      0.04%     60.27% |         106      0.67%     60.94% |           8      0.05%     60.99% |           6      0.04%     61.03% |           0      0.00%     61.03% |           1      0.01%     61.04% |           1      0.01%     61.04% |           0      0.00%     61.04% |           0      0.00%     61.04% |           6      0.04%     61.08% |           4      0.03%     61.11% |           0      0.00%     61.11% |           0      0.00%     61.11% |           1      0.01%     61.11% |           0      0.00%     61.11% |           2      0.01%     61.13% |           0      0.00%     61.13% |           2      0.01%     61.14% |           6      0.04%     61.18% |           0      0.00%     61.18% |           0      0.00%     61.18% |           4      0.03%     61.20% |           2      0.01%     61.21% |           2      0.01%     61.23% |           0      0.00%     61.23% |           0      0.00%     61.23% |           0      0.00%     61.23% |           0      0.00%     61.23% |           0      0.00%     61.23% |           0      0.00%     61.23% |           0      0.00%     61.23% |           0      0.00%     61.23% |           0      0.00%     61.23% |           0      0.00%     61.23% |           0      0.00%     61.23% |           0      0.00%     61.23% |           0      0.00%     61.23% |           0      0.00%     61.23% |           0      0.00%     61.23% |           0      0.00%     61.23% |           0      0.00%     61.23% |           0      0.00%     61.23% |           0      0.00%     61.23% |           0      0.00%     61.23% |           0      0.00%     61.23% |           0      0.00%     61.23% |           0      0.00%     61.23% |           0      0.00%     61.23% |           0      0.00%     61.23% |           0      0.00%     61.23% |           0      0.00%     61.23% |           0      0.00%     61.23% |           0      0.00%     61.23% |           0      0.00%     61.23% |           0      0.00%     61.23% |           0      0.00%     61.23% |           0      0.00%     61.23% |           0      0.00%     61.23% |           0      0.00%     61.23% |           0      0.00%     61.23% |           0      0.00%     61.23% |           0      0.00%     61.23% |           0      0.00%     61.23% |           0      0.00%     61.23% |           9      0.06%     61.28% |           4      0.03%     61.31% |           1      0.01%     61.32% |           0      0.00%     61.32% |           0      0.00%     61.32% |           0      0.00%     61.32% |           0      0.00%     61.32% |           0      0.00%     61.32% |           6      0.04%     61.35% |           0      0.00%     61.35% |           0      0.00%     61.35% |           2      0.01%     61.37% |           0      0.00%     61.37% |           2      0.01%     61.38% |           9      0.06%     61.44% |           8      0.05%     61.49% |           2      0.01%     61.50% |           0      0.00%     61.50% |           2      0.01%     61.51% |           0      0.00%     61.51% |           0      0.00%     61.51% |           1      0.01%     61.52% |           1      0.01%     61.53% |           1      0.01%     61.53% |           1      0.01%     61.54% |           2      0.01%     61.55% |           4      0.03%     61.58% |          10      0.06%     61.64% |          11      0.07%     61.71% |           8      0.05%     61.76% |           2      0.01%     61.77% |           0      0.00%     61.77% |           6      0.04%     61.81% |          20      0.13%     61.94% |           6      0.04%     61.98% |          33      0.21%     62.18% |          22      0.14%     62.32% |          45      0.29%     62.61% |          40      0.25%     62.86% |          39      0.25%     63.11% |          73      0.46%     63.57% |         171      1.08%     64.65% |          77      0.49%     65.14% |         102      0.65%     65.79% |          29      0.18%     65.97% |         185      1.17%     67.14% |        1723     10.91%     78.06% |        1844     11.68%     89.74% |         297      1.88%     91.62% |         123      0.78%     92.40% |         100      0.63%     93.03% |         212      1.34%     94.38% |         180      1.14%     95.52% |         417      2.64%     98.16% |         129      0.82%     98.97% |          50      0.32%     99.29% |          32      0.20%     99.49% |          22      0.14%     99.63% |          21      0.13%     99.77% |           7      0.04%     99.81% |          13      0.08%     99.89% |           0      0.00%     99.89% |           4      0.03%     99.92% |           5      0.03%     99.95% |           0      0.00%     99.95% |           0      0.00%     99.95% |           0      0.00%     99.95% # delay distribution for stores (Unspecified)
system.cpu1.storeLatencyDist::overflows             8      0.05%    100.00% # delay distribution for stores (Unspecified)
system.cpu1.storeLatencyDist::min_value        103000                       # delay distribution for stores (Unspecified)
system.cpu1.storeLatencyDist::max_value       2625000                       # delay distribution for stores (Unspecified)
system.cpu1.storeLatencyDist::total             15787                       # delay distribution for stores (Unspecified)
system.cpu1.initToCoalesceLatency::bucket_size        10000                       # Ticks from vmem inst initiateAcc to coalescer issue (Unspecified)
system.cpu1.initToCoalesceLatency::min_bucket            0                       # Ticks from vmem inst initiateAcc to coalescer issue (Unspecified)
system.cpu1.initToCoalesceLatency::max_bucket      1600000                       # Ticks from vmem inst initiateAcc to coalescer issue (Unspecified)
system.cpu1.initToCoalesceLatency::samples            0                       # Ticks from vmem inst initiateAcc to coalescer issue (Unspecified)
system.cpu1.initToCoalesceLatency::mean           nan                       # Ticks from vmem inst initiateAcc to coalescer issue (Unspecified)
system.cpu1.initToCoalesceLatency::stdev          nan                       # Ticks from vmem inst initiateAcc to coalescer issue (Unspecified)
system.cpu1.initToCoalesceLatency::underflows            0                       # Ticks from vmem inst initiateAcc to coalescer issue (Unspecified)
system.cpu1.initToCoalesceLatency        |           0                       |           0                       |           0                       |           0                       |           0                       |           0                       |           0                       |           0                       |           0                       |           0                       |           0                       |           0                       |           0                       |           0                       |           0                       |           0                       |           0                       |           0                       |           0                       |           0                       |           0                       |           0                       |           0                       |           0                       |           0                       |           0                       |           0                       |           0                       |           0                       |           0                       |           0                       |           0                       |           0                       |           0                       |           0                       |           0                       |           0                       |           0                       |           0                       |           0                       |           0                       |           0                       |           0                       |           0                       |           0                       |           0                       |           0                       |           0                       |           0                       |           0                       |           0                       |           0                       |           0                       |           0                       |           0                       |           0                       |           0                       |           0                       |           0                       |           0                       |           0                       |           0                       |           0                       |           0                       |           0                       |           0                       |           0                       |           0                       |           0                       |           0                       |           0                       |           0                       |           0                       |           0                       |           0                       |           0                       |           0                       |           0                       |           0                       |           0                       |           0                       |           0                       |           0                       |           0                       |           0                       |           0                       |           0                       |           0                       |           0                       |           0                       |           0                       |           0                       |           0                       |           0                       |           0                       |           0                       |           0                       |           0                       |           0                       |           0                       |           0                       |           0                       |           0                       |           0                       |           0                       |           0                       |           0                       |           0                       |           0                       |           0                       |           0                       |           0                       |           0                       |           0                       |           0                       |           0                       |           0                       |           0                       |           0                       |           0                       |           0                       |           0                       |           0                       |           0                       |           0                       |           0                       |           0                       |           0                       |           0                       |           0                       |           0                       |           0                       |           0                       |           0                       |           0                       |           0                       |           0                       |           0                       |           0                       |           0                       |           0                       |           0                       |           0                       |           0                       |           0                       |           0                       |           0                       |           0                       |           0                       |           0                       |           0                       |           0                       |           0                       |           0                       |           0                       |           0                       |           0                       |           0                       |           0                       |           0                       |           0                       # Ticks from vmem inst initiateAcc to coalescer issue (Unspecified)
system.cpu1.initToCoalesceLatency::overflows            0                       # Ticks from vmem inst initiateAcc to coalescer issue (Unspecified)
system.cpu1.initToCoalesceLatency::min_value            0                       # Ticks from vmem inst initiateAcc to coalescer issue (Unspecified)
system.cpu1.initToCoalesceLatency::max_value            0                       # Ticks from vmem inst initiateAcc to coalescer issue (Unspecified)
system.cpu1.initToCoalesceLatency::total            0                       # Ticks from vmem inst initiateAcc to coalescer issue (Unspecified)
system.cpu1.rubyNetworkLatency::bucket_size        10000                       # Ticks from coalescer issue to coalescer hit callback (Unspecified)
system.cpu1.rubyNetworkLatency::min_bucket            0                       # Ticks from coalescer issue to coalescer hit callback (Unspecified)
system.cpu1.rubyNetworkLatency::max_bucket      1600000                       # Ticks from coalescer issue to coalescer hit callback (Unspecified)
system.cpu1.rubyNetworkLatency::samples             0                       # Ticks from coalescer issue to coalescer hit callback (Unspecified)
system.cpu1.rubyNetworkLatency::mean              nan                       # Ticks from coalescer issue to coalescer hit callback (Unspecified)
system.cpu1.rubyNetworkLatency::stdev             nan                       # Ticks from coalescer issue to coalescer hit callback (Unspecified)
system.cpu1.rubyNetworkLatency::underflows            0                       # Ticks from coalescer issue to coalescer hit callback (Unspecified)
system.cpu1.rubyNetworkLatency           |           0                       |           0                       |           0                       |           0                       |           0                       |           0                       |           0                       |           0                       |           0                       |           0                       |           0                       |           0                       |           0                       |           0                       |           0                       |           0                       |           0                       |           0                       |           0                       |           0                       |           0                       |           0                       |           0                       |           0                       |           0                       |           0                       |           0                       |           0                       |           0                       |           0                       |           0                       |           0                       |           0                       |           0                       |           0                       |           0                       |           0                       |           0                       |           0                       |           0                       |           0                       |           0                       |           0                       |           0                       |           0                       |           0                       |           0                       |           0                       |           0                       |           0                       |           0                       |           0                       |           0                       |           0                       |           0                       |           0                       |           0                       |           0                       |           0                       |           0                       |           0                       |           0                       |           0                       |           0                       |           0                       |           0                       |           0                       |           0                       |           0                       |           0                       |           0                       |           0                       |           0                       |           0                       |           0                       |           0                       |           0                       |           0                       |           0                       |           0                       |           0                       |           0                       |           0                       |           0                       |           0                       |           0                       |           0                       |           0                       |           0                       |           0                       |           0                       |           0                       |           0                       |           0                       |           0                       |           0                       |           0                       |           0                       |           0                       |           0                       |           0                       |           0                       |           0                       |           0                       |           0                       |           0                       |           0                       |           0                       |           0                       |           0                       |           0                       |           0                       |           0                       |           0                       |           0                       |           0                       |           0                       |           0                       |           0                       |           0                       |           0                       |           0                       |           0                       |           0                       |           0                       |           0                       |           0                       |           0                       |           0                       |           0                       |           0                       |           0                       |           0                       |           0                       |           0                       |           0                       |           0                       |           0                       |           0                       |           0                       |           0                       |           0                       |           0                       |           0                       |           0                       |           0                       |           0                       |           0                       |           0                       |           0                       |           0                       |           0                       |           0                       |           0                       |           0                       |           0                       |           0                       |           0                       |           0                       |           0                       |           0                       # Ticks from coalescer issue to coalescer hit callback (Unspecified)
system.cpu1.rubyNetworkLatency::overflows            0                       # Ticks from coalescer issue to coalescer hit callback (Unspecified)
system.cpu1.rubyNetworkLatency::min_value            0                       # Ticks from coalescer issue to coalescer hit callback (Unspecified)
system.cpu1.rubyNetworkLatency::max_value            0                       # Ticks from coalescer issue to coalescer hit callback (Unspecified)
system.cpu1.rubyNetworkLatency::total               0                       # Ticks from coalescer issue to coalescer hit callback (Unspecified)
system.cpu1.gmEnqueueLatency::bucket_size        10000                       # Ticks from coalescer hit callback to GM pipe enqueue (Unspecified)
system.cpu1.gmEnqueueLatency::min_bucket            0                       # Ticks from coalescer hit callback to GM pipe enqueue (Unspecified)
system.cpu1.gmEnqueueLatency::max_bucket      1600000                       # Ticks from coalescer hit callback to GM pipe enqueue (Unspecified)
system.cpu1.gmEnqueueLatency::samples               0                       # Ticks from coalescer hit callback to GM pipe enqueue (Unspecified)
system.cpu1.gmEnqueueLatency::mean                nan                       # Ticks from coalescer hit callback to GM pipe enqueue (Unspecified)
system.cpu1.gmEnqueueLatency::stdev               nan                       # Ticks from coalescer hit callback to GM pipe enqueue (Unspecified)
system.cpu1.gmEnqueueLatency::underflows            0                       # Ticks from coalescer hit callback to GM pipe enqueue (Unspecified)
system.cpu1.gmEnqueueLatency             |           0                       |           0                       |           0                       |           0                       |           0                       |           0                       |           0                       |           0                       |           0                       |           0                       |           0                       |           0                       |           0                       |           0                       |           0                       |           0                       |           0                       |           0                       |           0                       |           0                       |           0                       |           0                       |           0                       |           0                       |           0                       |           0                       |           0                       |           0                       |           0                       |           0                       |           0                       |           0                       |           0                       |           0                       |           0                       |           0                       |           0                       |           0                       |           0                       |           0                       |           0                       |           0                       |           0                       |           0                       |           0                       |           0                       |           0                       |           0                       |           0                       |           0                       |           0                       |           0                       |           0                       |           0                       |           0                       |           0                       |           0                       |           0                       |           0                       |           0                       |           0                       |           0                       |           0                       |           0                       |           0                       |           0                       |           0                       |           0                       |           0                       |           0                       |           0                       |           0                       |           0                       |           0                       |           0                       |           0                       |           0                       |           0                       |           0                       |           0                       |           0                       |           0                       |           0                       |           0                       |           0                       |           0                       |           0                       |           0                       |           0                       |           0                       |           0                       |           0                       |           0                       |           0                       |           0                       |           0                       |           0                       |           0                       |           0                       |           0                       |           0                       |           0                       |           0                       |           0                       |           0                       |           0                       |           0                       |           0                       |           0                       |           0                       |           0                       |           0                       |           0                       |           0                       |           0                       |           0                       |           0                       |           0                       |           0                       |           0                       |           0                       |           0                       |           0                       |           0                       |           0                       |           0                       |           0                       |           0                       |           0                       |           0                       |           0                       |           0                       |           0                       |           0                       |           0                       |           0                       |           0                       |           0                       |           0                       |           0                       |           0                       |           0                       |           0                       |           0                       |           0                       |           0                       |           0                       |           0                       |           0                       |           0                       |           0                       |           0                       |           0                       |           0                       |           0                       |           0                       |           0                       |           0                       |           0                       |           0                       |           0                       # Ticks from coalescer hit callback to GM pipe enqueue (Unspecified)
system.cpu1.gmEnqueueLatency::overflows             0                       # Ticks from coalescer hit callback to GM pipe enqueue (Unspecified)
system.cpu1.gmEnqueueLatency::min_value             0                       # Ticks from coalescer hit callback to GM pipe enqueue (Unspecified)
system.cpu1.gmEnqueueLatency::max_value             0                       # Ticks from coalescer hit callback to GM pipe enqueue (Unspecified)
system.cpu1.gmEnqueueLatency::total                 0                       # Ticks from coalescer hit callback to GM pipe enqueue (Unspecified)
system.cpu1.gmToCompleteLatency::bucket_size        10000                       # Ticks queued in GM pipes ordered response buffer (Unspecified)
system.cpu1.gmToCompleteLatency::min_bucket            0                       # Ticks queued in GM pipes ordered response buffer (Unspecified)
system.cpu1.gmToCompleteLatency::max_bucket      1600000                       # Ticks queued in GM pipes ordered response buffer (Unspecified)
system.cpu1.gmToCompleteLatency::samples            0                       # Ticks queued in GM pipes ordered response buffer (Unspecified)
system.cpu1.gmToCompleteLatency::mean             nan                       # Ticks queued in GM pipes ordered response buffer (Unspecified)
system.cpu1.gmToCompleteLatency::stdev            nan                       # Ticks queued in GM pipes ordered response buffer (Unspecified)
system.cpu1.gmToCompleteLatency::underflows            0                       # Ticks queued in GM pipes ordered response buffer (Unspecified)
system.cpu1.gmToCompleteLatency          |           0                       |           0                       |           0                       |           0                       |           0                       |           0                       |           0                       |           0                       |           0                       |           0                       |           0                       |           0                       |           0                       |           0                       |           0                       |           0                       |           0                       |           0                       |           0                       |           0                       |           0                       |           0                       |           0                       |           0                       |           0                       |           0                       |           0                       |           0                       |           0                       |           0                       |           0                       |           0                       |           0                       |           0                       |           0                       |           0                       |           0                       |           0                       |           0                       |           0                       |           0                       |           0                       |           0                       |           0                       |           0                       |           0                       |           0                       |           0                       |           0                       |           0                       |           0                       |           0                       |           0                       |           0                       |           0                       |           0                       |           0                       |           0                       |           0                       |           0                       |           0                       |           0                       |           0                       |           0                       |           0                       |           0                       |           0                       |           0                       |           0                       |           0                       |           0                       |           0                       |           0                       |           0                       |           0                       |           0                       |           0                       |           0                       |           0                       |           0                       |           0                       |           0                       |           0                       |           0                       |           0                       |           0                       |           0                       |           0                       |           0                       |           0                       |           0                       |           0                       |           0                       |           0                       |           0                       |           0                       |           0                       |           0                       |           0                       |           0                       |           0                       |           0                       |           0                       |           0                       |           0                       |           0                       |           0                       |           0                       |           0                       |           0                       |           0                       |           0                       |           0                       |           0                       |           0                       |           0                       |           0                       |           0                       |           0                       |           0                       |           0                       |           0                       |           0                       |           0                       |           0                       |           0                       |           0                       |           0                       |           0                       |           0                       |           0                       |           0                       |           0                       |           0                       |           0                       |           0                       |           0                       |           0                       |           0                       |           0                       |           0                       |           0                       |           0                       |           0                       |           0                       |           0                       |           0                       |           0                       |           0                       |           0                       |           0                       |           0                       |           0                       |           0                       |           0                       |           0                       |           0                       |           0                       |           0                       |           0                       |           0                       # Ticks queued in GM pipes ordered response buffer (Unspecified)
system.cpu1.gmToCompleteLatency::overflows            0                       # Ticks queued in GM pipes ordered response buffer (Unspecified)
system.cpu1.gmToCompleteLatency::min_value            0                       # Ticks queued in GM pipes ordered response buffer (Unspecified)
system.cpu1.gmToCompleteLatency::max_value            0                       # Ticks queued in GM pipes ordered response buffer (Unspecified)
system.cpu1.gmToCompleteLatency::total              0                       # Ticks queued in GM pipes ordered response buffer (Unspecified)
system.cpu1.coalsrLineAddresses::bucket_size            1                       # Number of cache lines for coalesced request (Unspecified)
system.cpu1.coalsrLineAddresses::min_bucket            0                       # Number of cache lines for coalesced request (Unspecified)
system.cpu1.coalsrLineAddresses::max_bucket           20                       # Number of cache lines for coalesced request (Unspecified)
system.cpu1.coalsrLineAddresses::samples        31574                       # Number of cache lines for coalesced request (Unspecified)
system.cpu1.coalsrLineAddresses::mean               0                       # Number of cache lines for coalesced request (Unspecified)
system.cpu1.coalsrLineAddresses::stdev              0                       # Number of cache lines for coalesced request (Unspecified)
system.cpu1.coalsrLineAddresses::underflows            0      0.00%      0.00% # Number of cache lines for coalesced request (Unspecified)
system.cpu1.coalsrLineAddresses          |       31574    100.00%    100.00% |           0      0.00%    100.00% |           0      0.00%    100.00% |           0      0.00%    100.00% |           0      0.00%    100.00% |           0      0.00%    100.00% |           0      0.00%    100.00% |           0      0.00%    100.00% |           0      0.00%    100.00% |           0      0.00%    100.00% |           0      0.00%    100.00% |           0      0.00%    100.00% |           0      0.00%    100.00% |           0      0.00%    100.00% |           0      0.00%    100.00% |           0      0.00%    100.00% |           0      0.00%    100.00% |           0      0.00%    100.00% |           0      0.00%    100.00% |           0      0.00%    100.00% |           0      0.00%    100.00% # Number of cache lines for coalesced request (Unspecified)
system.cpu1.coalsrLineAddresses::overflows            0      0.00%    100.00% # Number of cache lines for coalesced request (Unspecified)
system.cpu1.coalsrLineAddresses::min_value            0                       # Number of cache lines for coalesced request (Unspecified)
system.cpu1.coalsrLineAddresses::max_value            0                       # Number of cache lines for coalesced request (Unspecified)
system.cpu1.coalsrLineAddresses::total          31574                       # Number of cache lines for coalesced request (Unspecified)
system.cpu1.shaderActiveTicks               735254997                       # Total ticks that any CU attached to this shader is active (Unspecified)
system.cpu1.vectorInstSrcOperand::0            151495                       # vector instruction source operand distribution (Unspecified)
system.cpu1.vectorInstSrcOperand::1            116208                       # vector instruction source operand distribution (Unspecified)
system.cpu1.vectorInstSrcOperand::2            137450                       # vector instruction source operand distribution (Unspecified)
system.cpu1.vectorInstSrcOperand::3                 0                       # vector instruction source operand distribution (Unspecified)
system.cpu1.vectorInstDstOperand::0            151819                       # vector instruction destination operand distribution (Unspecified)
system.cpu1.vectorInstDstOperand::1            253334                       # vector instruction destination operand distribution (Unspecified)
system.cpu1.vectorInstDstOperand::2                 0                       # vector instruction destination operand distribution (Unspecified)
system.cpu1.vectorInstDstOperand::3                 0                       # vector instruction destination operand distribution (Unspecified)
system.cpu1.CUs0.vALUInsts                      65736                       # Number of vector ALU insts issued. (Unspecified)
system.cpu1.CUs0.vALUInstsPerWF            103.684543                       # The avg. number of vector ALU insts issued per-wavefront. (Unspecified)
system.cpu1.CUs0.sALUInsts                      10516                       # Number of scalar ALU insts issued. (Unspecified)
system.cpu1.CUs0.sALUInstsPerWF             16.586751                       # The avg. number of scalar ALU insts issued per-wavefront. (Unspecified)
system.cpu1.CUs0.instCyclesVALU                 65736                       # Number of cycles needed to execute VALU insts. (Unspecified)
system.cpu1.CUs0.instCyclesSALU                 10516                       # Number of cycles needed to execute SALU insts. (Unspecified)
system.cpu1.CUs0.threadCyclesVALU             4206744                       # Number of thread cycles used to execute vector ALU ops. Similar to instCyclesVALU but multiplied by the number of active threads. (Unspecified)
system.cpu1.CUs0.vALUUtilization            99.991443                       # Percentage of active vector ALU threads in a wave. (Unspecified)
system.cpu1.CUs0.ldsNoFlatInsts                     0                       # Number of LDS insts issued, not including FLAT accesses that resolve to LDS. (Unspecified)
system.cpu1.CUs0.ldsNoFlatInstsPerWF                0                       # The avg. number of LDS insts (not including FLAT accesses that resolve to LDS) per-wavefront. (Unspecified)
system.cpu1.CUs0.flatVMemInsts                   7900                       # The number of FLAT insts that resolve to vmem issued. (Unspecified)
system.cpu1.CUs0.flatVMemInstsPerWF         12.460568                       # The average number of FLAT insts that resolve to vmem issued per-wavefront. (Unspecified)
system.cpu1.CUs0.flatLDSInsts                       0                       # The number of FLAT insts that resolve to LDS issued. (Unspecified)
system.cpu1.CUs0.flatLDSInstsPerWF                  0                       # The average number of FLAT insts that resolve to LDS issued per-wavefront. (Unspecified)
system.cpu1.CUs0.vectorMemWrites                    0                       # Number of vector mem write insts (excluding FLAT insts). (Unspecified)
system.cpu1.CUs0.vectorMemWritesPerWF               0                       # The average number of vector mem write insts (excluding FLAT insts) per-wavefront. (Unspecified)
system.cpu1.CUs0.vectorMemReads                     0                       # Number of vector mem read insts (excluding FLAT insts). (Unspecified)
system.cpu1.CUs0.vectorMemReadsPerWF                0                       # The avg. number of vector mem read insts (excluding FLAT insts) per-wavefront. (Unspecified)
system.cpu1.CUs0.scalarMemWrites                    0                       # Number of scalar mem write insts. (Unspecified)
system.cpu1.CUs0.scalarMemWritesPerWF               0                       # The average number of scalar mem write insts per-wavefront. (Unspecified)
system.cpu1.CUs0.scalarMemReads                  2780                       # Number of scalar mem read insts. (Unspecified)
system.cpu1.CUs0.scalarMemReadsPerWF         4.384858                       # The average number of scalar mem read insts per-wavefront. (Unspecified)
system.cpu1.CUs0.vectorMemReadsPerKiloInst            0                       # Number of vector mem reads per kilo-instruction (Unspecified)
system.cpu1.CUs0.vectorMemWritesPerKiloInst            0                       # Number of vector mem writes per kilo-instruction (Unspecified)
system.cpu1.CUs0.vectorMemInstsPerKiloInst            0                       # Number of vector mem insts per kilo-instruction (Unspecified)
system.cpu1.CUs0.scalarMemReadsPerKiloInst    27.511133                       # Number of scalar mem reads per kilo-instruction (Unspecified)
system.cpu1.CUs0.scalarMemWritesPerKiloInst            0                       # Number of scalar mem writes per kilo-instruction (Unspecified)
system.cpu1.CUs0.scalarMemInstsPerKiloInst    27.511133                       # Number of scalar mem insts per kilo-instruction (Unspecified)
system.cpu1.CUs0.instCyclesVMemPerSimd::0         2988                       # Number of cycles to send address, command, data from VRF to vector memory unit, per SIMD (Unspecified)
system.cpu1.CUs0.instCyclesVMemPerSimd::1         2982                       # Number of cycles to send address, command, data from VRF to vector memory unit, per SIMD (Unspecified)
system.cpu1.CUs0.instCyclesVMemPerSimd::2         2982                       # Number of cycles to send address, command, data from VRF to vector memory unit, per SIMD (Unspecified)
system.cpu1.CUs0.instCyclesVMemPerSimd::3         2898                       # Number of cycles to send address, command, data from VRF to vector memory unit, per SIMD (Unspecified)
system.cpu1.CUs0.instCyclesScMemPerSimd::0          648                       # Number of cycles to send address, command, data from SRF to scalar memory unit, per SIMD (Unspecified)
system.cpu1.CUs0.instCyclesScMemPerSimd::1          720                       # Number of cycles to send address, command, data from SRF to scalar memory unit, per SIMD (Unspecified)
system.cpu1.CUs0.instCyclesScMemPerSimd::2          720                       # Number of cycles to send address, command, data from SRF to scalar memory unit, per SIMD (Unspecified)
system.cpu1.CUs0.instCyclesScMemPerSimd::3          692                       # Number of cycles to send address, command, data from SRF to scalar memory unit, per SIMD (Unspecified)
system.cpu1.CUs0.instCyclesLdsPerSimd::0            0                       # Number of cycles to send address, command, data from VRF to LDS unit, per SIMD (Unspecified)
system.cpu1.CUs0.instCyclesLdsPerSimd::1            0                       # Number of cycles to send address, command, data from VRF to LDS unit, per SIMD (Unspecified)
system.cpu1.CUs0.instCyclesLdsPerSimd::2            0                       # Number of cycles to send address, command, data from VRF to LDS unit, per SIMD (Unspecified)
system.cpu1.CUs0.instCyclesLdsPerSimd::3            0                       # Number of cycles to send address, command, data from VRF to LDS unit, per SIMD (Unspecified)
system.cpu1.CUs0.globalReads                     3950                       # Number of reads to the global segment (Unspecified)
system.cpu1.CUs0.globalWrites                    3950                       # Number of writes to the global segment (Unspecified)
system.cpu1.CUs0.globalMemInsts                  7900                       # Number of memory instructions sent to the global segment (Unspecified)
system.cpu1.CUs0.argReads                           0                       # Number of reads to the arg segment (Unspecified)
system.cpu1.CUs0.argWrites                          0                       # NUmber of writes to the arg segment (Unspecified)
system.cpu1.CUs0.argMemInsts                        0                       # Number of memory instructions sent to the arg segment (Unspecified)
system.cpu1.CUs0.spillReads                         0                       # Number of reads to the spill segment (Unspecified)
system.cpu1.CUs0.spillWrites                        0                       # Number of writes to the spill segment (Unspecified)
system.cpu1.CUs0.spillMemInsts                      0                       # Number of memory instructions sent to the spill segment (Unspecified)
system.cpu1.CUs0.groupReads                         0                       # Number of reads to the group segment (Unspecified)
system.cpu1.CUs0.groupWrites                        0                       # Number of writes to the group segment (Unspecified)
system.cpu1.CUs0.groupMemInsts                      0                       # Number of memory instructions sent to the group segment (Unspecified)
system.cpu1.CUs0.privReads                          0                       # Number of reads to the private segment (Unspecified)
system.cpu1.CUs0.privWrites                         0                       # Number of writes to the private segment (Unspecified)
system.cpu1.CUs0.privMemInsts                       0                       # Number of memory instructions sent to the private segment (Unspecified)
system.cpu1.CUs0.readonlyReads                      0                       # Number of reads to the readonly segment (Unspecified)
system.cpu1.CUs0.readonlyWrites                     0                       # Number of memory instructions sent to the readonly segment (Unspecified)
system.cpu1.CUs0.readonlyMemInsts                   0                       # Number of memory instructions sent to the readonly segment (Unspecified)
system.cpu1.CUs0.kernargReads                       0                       # Number of reads sent to the kernarg segment (Unspecified)
system.cpu1.CUs0.kernargWrites                      0                       # Number of memory instructions sent to the kernarg segment (Unspecified)
system.cpu1.CUs0.kernargMemInsts                    0                       # Number of memory instructions sent to the kernarg segment (Unspecified)
system.cpu1.CUs0.waveLevelParallelism::samples          634                       # wave level parallelism: count of active waves at wave launch (Unspecified)
system.cpu1.CUs0.waveLevelParallelism::mean    10.905363                       # wave level parallelism: count of active waves at wave launch (Unspecified)
system.cpu1.CUs0.waveLevelParallelism::stdev     4.299660                       # wave level parallelism: count of active waves at wave launch (Unspecified)
system.cpu1.CUs0.waveLevelParallelism::underflows            0      0.00%      0.00% # wave level parallelism: count of active waves at wave launch (Unspecified)
system.cpu1.CUs0.waveLevelParallelism::0            3      0.47%      0.47% # wave level parallelism: count of active waves at wave launch (Unspecified)
system.cpu1.CUs0.waveLevelParallelism::1            3      0.47%      0.95% # wave level parallelism: count of active waves at wave launch (Unspecified)
system.cpu1.CUs0.waveLevelParallelism::2            3      0.47%      1.42% # wave level parallelism: count of active waves at wave launch (Unspecified)
system.cpu1.CUs0.waveLevelParallelism::3          118     18.61%     20.03% # wave level parallelism: count of active waves at wave launch (Unspecified)
system.cpu1.CUs0.waveLevelParallelism::4            1      0.16%     20.19% # wave level parallelism: count of active waves at wave launch (Unspecified)
system.cpu1.CUs0.waveLevelParallelism::5            1      0.16%     20.35% # wave level parallelism: count of active waves at wave launch (Unspecified)
system.cpu1.CUs0.waveLevelParallelism::6            2      0.32%     20.66% # wave level parallelism: count of active waves at wave launch (Unspecified)
system.cpu1.CUs0.waveLevelParallelism::7            1      0.16%     20.82% # wave level parallelism: count of active waves at wave launch (Unspecified)
system.cpu1.CUs0.waveLevelParallelism::8            1      0.16%     20.98% # wave level parallelism: count of active waves at wave launch (Unspecified)
system.cpu1.CUs0.waveLevelParallelism::9            7      1.10%     22.08% # wave level parallelism: count of active waves at wave launch (Unspecified)
system.cpu1.CUs0.waveLevelParallelism::10           27      4.26%     26.34% # wave level parallelism: count of active waves at wave launch (Unspecified)
system.cpu1.CUs0.waveLevelParallelism::11           28      4.42%     30.76% # wave level parallelism: count of active waves at wave launch (Unspecified)
system.cpu1.CUs0.waveLevelParallelism::12          125     19.72%     50.47% # wave level parallelism: count of active waves at wave launch (Unspecified)
system.cpu1.CUs0.waveLevelParallelism::13          119     18.77%     69.24% # wave level parallelism: count of active waves at wave launch (Unspecified)
system.cpu1.CUs0.waveLevelParallelism::14           98     15.46%     84.70% # wave level parallelism: count of active waves at wave launch (Unspecified)
system.cpu1.CUs0.waveLevelParallelism::15           97     15.30%    100.00% # wave level parallelism: count of active waves at wave launch (Unspecified)
system.cpu1.CUs0.waveLevelParallelism::16            0      0.00%    100.00% # wave level parallelism: count of active waves at wave launch (Unspecified)
system.cpu1.CUs0.waveLevelParallelism::17            0      0.00%    100.00% # wave level parallelism: count of active waves at wave launch (Unspecified)
system.cpu1.CUs0.waveLevelParallelism::18            0      0.00%    100.00% # wave level parallelism: count of active waves at wave launch (Unspecified)
system.cpu1.CUs0.waveLevelParallelism::19            0      0.00%    100.00% # wave level parallelism: count of active waves at wave launch (Unspecified)
system.cpu1.CUs0.waveLevelParallelism::20            0      0.00%    100.00% # wave level parallelism: count of active waves at wave launch (Unspecified)
system.cpu1.CUs0.waveLevelParallelism::21            0      0.00%    100.00% # wave level parallelism: count of active waves at wave launch (Unspecified)
system.cpu1.CUs0.waveLevelParallelism::22            0      0.00%    100.00% # wave level parallelism: count of active waves at wave launch (Unspecified)
system.cpu1.CUs0.waveLevelParallelism::23            0      0.00%    100.00% # wave level parallelism: count of active waves at wave launch (Unspecified)
system.cpu1.CUs0.waveLevelParallelism::24            0      0.00%    100.00% # wave level parallelism: count of active waves at wave launch (Unspecified)
system.cpu1.CUs0.waveLevelParallelism::25            0      0.00%    100.00% # wave level parallelism: count of active waves at wave launch (Unspecified)
system.cpu1.CUs0.waveLevelParallelism::26            0      0.00%    100.00% # wave level parallelism: count of active waves at wave launch (Unspecified)
system.cpu1.CUs0.waveLevelParallelism::27            0      0.00%    100.00% # wave level parallelism: count of active waves at wave launch (Unspecified)
system.cpu1.CUs0.waveLevelParallelism::28            0      0.00%    100.00% # wave level parallelism: count of active waves at wave launch (Unspecified)
system.cpu1.CUs0.waveLevelParallelism::29            0      0.00%    100.00% # wave level parallelism: count of active waves at wave launch (Unspecified)
system.cpu1.CUs0.waveLevelParallelism::30            0      0.00%    100.00% # wave level parallelism: count of active waves at wave launch (Unspecified)
system.cpu1.CUs0.waveLevelParallelism::31            0      0.00%    100.00% # wave level parallelism: count of active waves at wave launch (Unspecified)
system.cpu1.CUs0.waveLevelParallelism::32            0      0.00%    100.00% # wave level parallelism: count of active waves at wave launch (Unspecified)
system.cpu1.CUs0.waveLevelParallelism::33            0      0.00%    100.00% # wave level parallelism: count of active waves at wave launch (Unspecified)
system.cpu1.CUs0.waveLevelParallelism::34            0      0.00%    100.00% # wave level parallelism: count of active waves at wave launch (Unspecified)
system.cpu1.CUs0.waveLevelParallelism::35            0      0.00%    100.00% # wave level parallelism: count of active waves at wave launch (Unspecified)
system.cpu1.CUs0.waveLevelParallelism::36            0      0.00%    100.00% # wave level parallelism: count of active waves at wave launch (Unspecified)
system.cpu1.CUs0.waveLevelParallelism::37            0      0.00%    100.00% # wave level parallelism: count of active waves at wave launch (Unspecified)
system.cpu1.CUs0.waveLevelParallelism::38            0      0.00%    100.00% # wave level parallelism: count of active waves at wave launch (Unspecified)
system.cpu1.CUs0.waveLevelParallelism::39            0      0.00%    100.00% # wave level parallelism: count of active waves at wave launch (Unspecified)
system.cpu1.CUs0.waveLevelParallelism::40            0      0.00%    100.00% # wave level parallelism: count of active waves at wave launch (Unspecified)
system.cpu1.CUs0.waveLevelParallelism::overflows            0      0.00%    100.00% # wave level parallelism: count of active waves at wave launch (Unspecified)
system.cpu1.CUs0.waveLevelParallelism::min_value            0                       # wave level parallelism: count of active waves at wave launch (Unspecified)
system.cpu1.CUs0.waveLevelParallelism::max_value           15                       # wave level parallelism: count of active waves at wave launch (Unspecified)
system.cpu1.CUs0.waveLevelParallelism::total          634                       # wave level parallelism: count of active waves at wave launch (Unspecified)
system.cpu1.CUs0.tlbRequests                   505456                       # number of uncoalesced requests (Unspecified)
system.cpu1.CUs0.tlbCycles               151468018904                       # total number of cycles for all uncoalesced requests (Unspecified)
system.cpu1.CUs0.tlbLatency              299666.081526                       # Avg. translation latency for data translations (Unspecified)
system.cpu1.CUs0.hitsPerTLBLevel::page_table        49528                       # TLB hits distribution (0 for page table, x for Lx-TLB) (Unspecified)
system.cpu1.CUs0.hitsPerTLBLevel::L1_TLB       446520                       # TLB hits distribution (0 for page table, x for Lx-TLB) (Unspecified)
system.cpu1.CUs0.hitsPerTLBLevel::L2_TLB         9408                       # TLB hits distribution (0 for page table, x for Lx-TLB) (Unspecified)
system.cpu1.CUs0.hitsPerTLBLevel::L3_TLB            0                       # TLB hits distribution (0 for page table, x for Lx-TLB) (Unspecified)
system.cpu1.CUs0.ldsBankAccesses                    0                       # Total number of LDS bank accesses (Unspecified)
system.cpu1.CUs0.ldsBankConflictDist::samples            0                       # Number of bank conflicts per LDS memory packet (Unspecified)
system.cpu1.CUs0.ldsBankConflictDist::mean          nan                       # Number of bank conflicts per LDS memory packet (Unspecified)
system.cpu1.CUs0.ldsBankConflictDist::stdev          nan                       # Number of bank conflicts per LDS memory packet (Unspecified)
system.cpu1.CUs0.ldsBankConflictDist::underflows            0                       # Number of bank conflicts per LDS memory packet (Unspecified)
system.cpu1.CUs0.ldsBankConflictDist::0-1            0                       # Number of bank conflicts per LDS memory packet (Unspecified)
system.cpu1.CUs0.ldsBankConflictDist::2-3            0                       # Number of bank conflicts per LDS memory packet (Unspecified)
system.cpu1.CUs0.ldsBankConflictDist::4-5            0                       # Number of bank conflicts per LDS memory packet (Unspecified)
system.cpu1.CUs0.ldsBankConflictDist::6-7            0                       # Number of bank conflicts per LDS memory packet (Unspecified)
system.cpu1.CUs0.ldsBankConflictDist::8-9            0                       # Number of bank conflicts per LDS memory packet (Unspecified)
system.cpu1.CUs0.ldsBankConflictDist::10-11            0                       # Number of bank conflicts per LDS memory packet (Unspecified)
system.cpu1.CUs0.ldsBankConflictDist::12-13            0                       # Number of bank conflicts per LDS memory packet (Unspecified)
[...]
system.Shader.cacheBlockRoundTrip8::overflows            0                       # Coalsr-to-coalsr time for the Nth cache block in an inst (Unspecified)
system.Shader.cacheBlockRoundTrip8::min_value            0                       # Coalsr-to-coalsr time for the Nth cache block in an inst (Unspecified)
system.Shader.cacheBlockRoundTrip8::max_value            0                       # Coalsr-to-coalsr time for the Nth cache block in an inst (Unspecified)
system.Shader.cacheBlockRoundTrip8::total            0                       # Coalsr-to-coalsr time for the Nth cache block in an inst (Unspecified)
system.Shader.cacheBlockRoundTrip9::bucket_size        10000                       # Coalsr-to-coalsr time for the Nth cache block in an inst (Unspecified)
system.Shader.cacheBlockRoundTrip9::min_bucket            0                       # Coalsr-to-coalsr time for the Nth cache block in an inst (Unspecified)
system.Shader.cacheBlockRoundTrip9::max_bucket      1600000                       # Coalsr-to-coalsr time for the Nth cache block in an inst (Unspecified)
system.Shader.cacheBlockRoundTrip9::samples            0                       # Coalsr-to-coalsr time for the Nth cache block in an inst (Unspecified)
system.Shader.cacheBlockRoundTrip9::mean          nan                       # Coalsr-to-coalsr time for the Nth cache block in an inst (Unspecified)
system.Shader.cacheBlockRoundTrip9::stdev          nan                       # Coalsr-to-coalsr time for the Nth cache block in an inst (Unspecified)
system.Shader.cacheBlockRoundTrip9::underflows            0                       # Coalsr-to-coalsr time for the Nth cache block in an inst (Unspecified)
system.Shader.cacheBlockRoundTrip9       |           0                       |           0                       |           0                       |           0                       |           0                       |           0                       |           0                       |           0                       |           0                       |           0                       |           0                       |           0                       |           0                       |           0                       |           0                       |           0                       |           0                       |           0                       |           0                       |           0                       |           0                       |           0                       |           0                       |           0                       |           0                       |           0                       |           0                       |           0                       |           0                       |           0                       |           0                       |           0                       |           0                       |           0                       |           0                       |           0                       |           0                       |           0                       |           0                       |           0                       |           0                       |           0                       |           0                       |           0                       |           0                       |           0                       |           0                       |           0                       |           0                       |           0                       |           0                       |           0                       |           0                       |           0                       |           0                       |           0                       |           0                       |           0                       |           0                       |           0                       |           0                       |           0                       |           0                       |           0                       |           0                       |           0                       |           0                       |           0                       |           0                       |           0                       |           0                       |           0                       |           0                       |           0                       |           0                       |           0                       |           0                       |           0                       |           0                       |           0                       |           0                       |           0                       |           0                       |           0                       |           0                       |           0                       |           0                       |           0                       |           0                       |           0                       |           0                       |           0                       |           0                       |           0                       |           0                       |           0                       |           0                       |           0                       |           0                       |           0                       |           0                       |           0                       |           0                       |           0                       |           0                       |           0                       |           0                       |           0                       |           0                       |           0                       |           0                       |           0                       |           0                       |           0                       |           0                       |           0                       |           0                       |           0                       |           0                       |           0                       |           0                       |           0                       |           0                       |           0                       |           0                       |           0                       |           0                       |           0                       |           0                       |           0                       |           0                       |           0                       |           0                       |           0                       |           0                       |           0                       |           0                       |           0                       |           0                       |           0                       |           0                       |           0                       |           0                       |           0                       |           0                       |           0                       |           0                       |           0                       |           0                       |           0                       |           0                       |           0                       |           0                       |           0                       |           0                       |           0                       |           0                       |           0                       |           0                       |           0                       |           0                       # Coalsr-to-coalsr time for the Nth cache block in an inst (Unspecified)
system.Shader.cacheBlockRoundTrip9::overflows            0                       # Coalsr-to-coalsr time for the Nth cache block in an inst (Unspecified)
system.Shader.cacheBlockRoundTrip9::min_value            0                       # Coalsr-to-coalsr time for the Nth cache block in an inst (Unspecified)
system.Shader.cacheBlockRoundTrip9::max_value            0                       # Coalsr-to-coalsr time for the Nth cache block in an inst (Unspecified)
system.Shader.cacheBlockRoundTrip9::total            0                       # Coalsr-to-coalsr time for the Nth cache block in an inst (Unspecified)
system.l1_coalescer0.coalesced_accesses          7900                       # Number of coalesced TLB accesses (Unspecified)
system.l1_coalescer0.latency               299.948522                       # Avg. latency over all incoming pkts (Unspecified)
system.l1_coalescer0.local_cycles           151610780                       # Number of cycles spent in queue for all incoming reqs (Unspecified)
system.l1_coalescer0.local_latency         156.022000                       # Avg. latency over all incoming pkts (Unspecified)
system.l1_coalescer0.local_queuing_cycles     78862256                       # Number of cycles spent in queue for all incoming reqs (Unspecified)
system.l1_coalescer0.queuing_cycles          78862256                       # Number of cycles spent in queue (Unspecified)
system.l1_coalescer0.uncoalesced_accesses       505456                       # Number of uncoalesced TLB accesses (Unspecified)
system.l1_coalescer1.coalesced_accesses          7896                       # Number of coalesced TLB accesses (Unspecified)
system.l1_coalescer1.latency               299.975177                       # Avg. latency over all incoming pkts (Unspecified)
system.l1_coalescer1.local_cycles           151590656                       # Number of cycles spent in queue for all incoming reqs (Unspecified)
system.l1_coalescer1.local_latency         156.145137                       # Avg. latency over all incoming pkts (Unspecified)
system.l1_coalescer1.local_queuing_cycles     78907008                       # Number of cycles spent in queue for all incoming reqs (Unspecified)
system.l1_coalescer1.queuing_cycles          78907008                       # Number of cycles spent in queue (Unspecified)
system.l1_coalescer1.uncoalesced_accesses       505344                       # Number of uncoalesced TLB accesses (Unspecified)
system.l1_coalescer2.coalesced_accesses          7834                       # Number of coalesced TLB accesses (Unspecified)
system.l1_coalescer2.latency               302.842864                       # Avg. latency over all incoming pkts (Unspecified)
system.l1_coalescer2.local_cycles           151838144                       # Number of cycles spent in queue for all incoming reqs (Unspecified)
system.l1_coalescer2.local_latency         160.163390                       # Avg. latency over all incoming pkts (Unspecified)
system.l1_coalescer2.local_queuing_cycles     80302080                       # Number of cycles spent in queue for all incoming reqs (Unspecified)
system.l1_coalescer2.queuing_cycles          80302080                       # Number of cycles spent in queue (Unspecified)
system.l1_coalescer2.uncoalesced_accesses       501376                       # Number of uncoalesced TLB accesses (Unspecified)
system.l1_coalescer3.coalesced_accesses          7944                       # Number of coalesced TLB accesses (Unspecified)
system.l1_coalescer3.latency               302.925604                       # Avg. latency over all incoming pkts (Unspecified)
system.l1_coalescer3.local_cycles           154012224                       # Number of cycles spent in queue for all incoming reqs (Unspecified)
system.l1_coalescer3.local_latency         163.102090                       # Avg. latency over all incoming pkts (Unspecified)
system.l1_coalescer3.local_queuing_cycles     82923712                       # Number of cycles spent in queue for all incoming reqs (Unspecified)
system.l1_coalescer3.queuing_cycles          82923712                       # Number of cycles spent in queue (Unspecified)
system.l1_coalescer3.uncoalesced_accesses       508416                       # Number of uncoalesced TLB accesses (Unspecified)
system.l2_coalescer.coalesced_accesses           1389                       # Number of coalesced TLB accesses (Unspecified)
system.l2_coalescer.latency               1240.301746                       # Avg. latency over all incoming pkts (Unspecified)
system.l2_coalescer.local_cycles              4476249                       # Number of cycles spent in queue for all incoming reqs (Unspecified)
system.l2_coalescer.local_latency          122.368800                       # Avg. latency over all incoming pkts (Unspecified)
system.l2_coalescer.local_queuing_cycles       441629                       # Number of cycles spent in queue for all incoming reqs (Unspecified)
system.l2_coalescer.queuing_cycles           28263800                       # Number of cycles spent in queue (Unspecified)
system.l2_coalescer.uncoalesced_accesses         3609                       # Number of uncoalesced TLB accesses (Unspecified)
system.l3_coalescer.coalesced_accesses            953                       # Number of coalesced TLB accesses (Unspecified)
system.l3_coalescer.latency               1250.103882                       # Avg. latency over all incoming pkts (Unspecified)
system.l3_coalescer.local_cycles              1191349                       # Number of cycles spent in queue for all incoming reqs (Unspecified)
system.l3_coalescer.local_latency                   1                       # Avg. latency over all incoming pkts (Unspecified)
system.l3_coalescer.local_queuing_cycles          953                       # Number of cycles spent in queue for all incoming reqs (Unspecified)
system.l3_coalescer.queuing_cycles             193208                       # Number of cycles spent in queue (Unspecified)
system.l3_coalescer.uncoalesced_accesses          953                       # Number of uncoalesced TLB accesses (Unspecified)
system.scalar_coalescer.coalesced_accesses         6003                       # Number of coalesced TLB accesses (Unspecified)
system.scalar_coalescer.latency             29.016868                       # Avg. latency over all incoming pkts (Unspecified)
system.scalar_coalescer.local_cycles           326846                       # Number of cycles spent in queue for all incoming reqs (Unspecified)
system.scalar_coalescer.local_latency       26.158913                       # Avg. latency over all incoming pkts (Unspecified)
system.scalar_coalescer.local_queuing_cycles       294654                       # Number of cycles spent in queue for all incoming reqs (Unspecified)
system.scalar_coalescer.queuing_cycles         294654                       # Number of cycles spent in queue (Unspecified)
system.scalar_coalescer.uncoalesced_accesses        11264                       # Number of uncoalesced TLB accesses (Unspecified)
system.sqc_coalescer.coalesced_accesses         19023                       # Number of coalesced TLB accesses (Unspecified)
system.sqc_coalescer.latency                 4.053797                       # Avg. latency over all incoming pkts (Unspecified)
system.sqc_coalescer.local_cycles              171581                       # Number of cycles spent in queue for all incoming reqs (Unspecified)
system.sqc_coalescer.local_latency           1.605987                       # Avg. latency over all incoming pkts (Unspecified)
system.sqc_coalescer.local_queuing_cycles        67975                       # Number of cycles spent in queue for all incoming reqs (Unspecified)
system.sqc_coalescer.queuing_cycles             67975                       # Number of cycles spent in queue (Unspecified)
system.sqc_coalescer.uncoalesced_accesses        42326                       # Number of uncoalesced TLB accesses (Unspecified)

---------- End Simulation Statistics   ----------
