
---------- Begin Simulation Statistics ----------
simSeconds                                  16.511200                       # Number of seconds simulated (Second)
simTicks                                 16511200032000                       # Number of ticks simulated (Tick)
finalTick                                16511200032000                       # Number of ticks from beginning of simulation (restored from checkpoints and never reset) (Tick)
simFreq                                  1000000000000                       # The number of ticks per simulated second ((Tick/Second))
hostSeconds                                    138.03                       # Real time elapsed on the host (Second)
hostTickRate                             119618834871                       # The number of ticks simulated per host second (ticks/s) ((Tick/Second))
hostMemory                                   23229580                       # Number of bytes of host memory used (Byte)
simInsts                                  12361994081                       # Number of instructions simulated (Count)
simOps                                    12361994081                       # Number of ops (including micro ops) simulated (Count)
hostInstRate                                 89558918                       # Simulator instruction rate (inst/s) ((Count/Second))
hostOpRate                                   89558911                       # Simulator op (including micro ops) rate (op/s) ((Count/Second))
system.clk_domain.clock                          1000                       # Clock period in ticks (Tick)
system.cpu0.numCycles                    128883691938                       # Number of cpu cycles simulated (Cycle)
system.cpu0.numWorkItemsStarted                     0                       # Number of work items this cpu started (Count)
system.cpu0.numWorkItemsCompleted                   0                       # Number of work items this cpu completed (Count)
system.cpu0.committedInsts                12361994081                       # Number of instructions committed (Count)
system.cpu0.numVMExits                        2891960                       # total number of KVM exits (Count)
system.cpu0.numVMHalfEntries                    19113                       # number of KVM entries to finalize pending operations (Count)
system.cpu0.numExitSignal                     2571486                       # exits due to signal delivery (Count)
system.cpu0.numMMIO                             86364                       # number of VM exits due to memory mapped IO (Count)
system.cpu0.numCoalescedMMIO                        0                       # number of coalesced memory mapped IO requests (Count)
system.cpu0.numIO                              225806                       # number of VM exits due to legacy IO (Count)
system.cpu0.numHalt                              1569                       # number of VM exits due to wait for interrupt instructions (Count)
system.cpu0.numInterrupts                        9625                       # number of interrupts delivered (Count)
system.cpu0.numHypercalls                           0                       # number of hypercalls (Count)
system.cpu0.interrupts.clk_domain.clock          8000                       # Clock period in ticks (Tick)
system.cpu0.mmu.dtb.rdAccesses                      0                       # TLB accesses on read requests (Count)
system.cpu0.mmu.dtb.wrAccesses                      0                       # TLB accesses on write requests (Count)
system.cpu0.mmu.dtb.rdMisses                        0                       # TLB misses on read requests (Count)
system.cpu0.mmu.dtb.wrMisses                        0                       # TLB misses on write requests (Count)
system.cpu0.mmu.dtb.walker.power_state.pwrStateResidencyTicks::UNDEFINED 16511200032000                       # Cumulative time (in ticks) in various power states (Tick)
system.cpu0.mmu.itb.rdAccesses                      0                       # TLB accesses on read requests (Count)
system.cpu0.mmu.itb.wrAccesses                      0                       # TLB accesses on write requests (Count)
system.cpu0.mmu.itb.rdMisses                        0                       # TLB misses on read requests (Count)
system.cpu0.mmu.itb.wrMisses                        0                       # TLB misses on write requests (Count)
system.cpu0.mmu.itb.walker.power_state.pwrStateResidencyTicks::UNDEFINED 16511200032000                       # Cumulative time (in ticks) in various power states (Tick)
system.cpu0.power_state.pwrStateResidencyTicks::ON 16511200032000                       # Cumulative time (in ticks) in various power states (Tick)
system.cpu0.thread_0.numInsts                       0                       # Number of Instructions committed (Count)
system.cpu0.thread_0.numOps                         0                       # Number of Ops committed (Count)
system.cpu0.thread_0.numMemRefs                     0                       # Number of Memory References (Count)
system.cpu1.allLatencyDist::bucket_size         10000                       # delay distribution for all (Unspecified)
system.cpu1.allLatencyDist::min_bucket              0                       # delay distribution for all (Unspecified)
system.cpu1.allLatencyDist::max_bucket        1600000                       # delay distribution for all (Unspecified)
system.cpu1.allLatencyDist::samples             31574                       # delay distribution for all (Unspecified)
system.cpu1.allLatencyDist::mean         1531318.363210                       # delay distribution for all (Unspecified)
system.cpu1.allLatencyDist::stdev        1145570.656968                       # delay distribution for all (Unspecified)
system.cpu1.allLatencyDist::underflows              0      0.00%      0.00% # delay distribution for all (Unspecified)
system.cpu1.allLatencyDist               |           0      0.00%      0.00% |           0      0.00%      0.00% |           0      0.00%      0.00% |           0      0.00%      0.00% |           0      0.00%      0.00% |           0      0.00%      0.00% |           0      0.00%      0.00% |           0      0.00%      0.00% |           0      0.00%      0.00% |           0      0.00%      0.00% |        2100      6.65%      6.65% |         242      0.77%      7.42% |         116      0.37%      7.78% |         558      1.77%      9.55% |         315      1.00%     10.55% |         375      1.19%     11.74% |        2003      6.34%     18.08% |         930      2.95%     21.03% |          33      0.10%     21.13% |         144      0.46%     21.59% |         135      0.43%     22.01% |         118      0.37%     22.39% |          41      0.13%     22.52% |          33      0.10%     22.62% |          16      0.05%     22.67% |          30      0.10%     22.77% |          45      0.14%     22.91% |          22      0.07%     22.98% |          18      0.06%     23.04% |          27      0.09%     23.12% |          41      0.13%     23.25% |          43      0.14%     23.39% |          18      0.06%     23.45% |          16      0.05%     23.50% |          24      0.08%     23.57% |          19      0.06%     23.63% |          19      0.06%     23.69% |          17      0.05%     23.75% |          17      0.05%     23.80% |          13      0.04%     23.84% |          30      0.10%     23.94% |          10      0.03%     23.97% |          10      0.03%     24.00% |          15      0.05%     24.05% |          11      0.03%     24.08% |           7      0.02%     24.11% |          16      0.05%     24.16% |          18      0.06%     24.21% |          13      0.04%     24.25% |           9      0.03%     24.28% |           7      0.02%     24.30% |          10      0.03%     24.34% |          13      0.04%     24.38% |           5      0.02%     24.39% |           4      0.01%     24.41% |          13      0.04%     24.45% |          17      0.05%     24.50% |           6      0.02%     24.52% |           5      0.02%     24.54% |          11      0.03%     24.57% |           3      0.01%     24.58% |           8      0.03%     24.61% |           7      0.02%     24.63% |           6      0.02%     24.65% |          10      0.03%     24.68% |           5      0.02%     24.69% |           1      0.00%     24.70% |           1      0.00%     24.70% |           1      0.00%     24.70% |           1      0.00%     24.71% |           0      0.00%     24.71% |           0      0.00%     24.71% |           1      0.00%     24.71% |           3      0.01%     24.72% |           0      0.00%     24.72% |           0      0.00%     24.72% |           2      0.01%     24.73% |           6      0.02%     24.75% |          12      0.04%     24.78% |           4      0.01%     24.80% |           8      0.03%     24.82% |           7      0.02%     24.84% |           2      0.01%     24.85% |           6      0.02%     24.87% |           1      0.00%     24.87% |           5      0.02%     24.89% |          13      0.04%     24.93% |           8      0.03%     24.95% |           4      0.01%     24.97% |           5      0.02%     24.98% |          11      0.03%     25.02% |           4      0.01%     25.03% |           7      0.02%     25.05% |           7      0.02%     25.07% |          11      0.03%     25.11% |          11      0.03%     25.14% |          11      0.03%     25.18% |          10      0.03%     25.21% |           5      0.02%     25.23% |           7      0.02%     25.25% |           7      0.02%     25.27% |           7      0.02%     25.29% |           7      0.02%     25.32% |           2      0.01%     25.32% |           1      0.00%     25.32% |           2      0.01%     25.33% |           3      0.01%     25.34% |           8      0.03%     25.37% |           6      0.02%     25.38% |           6      0.02%     25.40% |          12      0.04%     25.44% |          15      0.05%     25.49% |           8      0.03%     25.51% |          11      0.03%     25.55% |          19      0.06%     25.61% |           8      0.03%     25.64% |           5      0.02%     25.65% |          14      0.04%     25.70% |          11      0.03%     25.73% |          18      0.06%     25.79% |          22      0.07%     25.86% |          24      0.08%     25.93% |           9      0.03%     25.96% |           6      0.02%     25.98% |          15      0.05%     26.03% |          19      0.06%     26.09% |          34      0.11%     26.20% |          22      0.07%     26.27% |          38      0.12%     26.39% |          32      0.10%     26.49% |          30      0.10%     26.58% |          40      0.13%     26.71% |          28      0.09%     26.80% |          41      0.13%     26.93% |        1378      4.36%     31.29% |        1757      5.56%     36.86% |        1096      3.47%     40.33% |         974      3.08%     43.41% |        1149      3.64%     47.05% |         774      2.45%     49.50% |        1294      4.10%     53.60% |        2102      6.66%     60.26% |        1067      3.38%     63.64% |         227      0.72%     64.36% |         889      2.82%     67.17% |         373      1.18%     68.35% |         234      0.74%     69.09% |         541      1.71%     70.81% |         360      1.14%     71.95% |         190      0.60%     72.55% |         186      0.59%     73.14% |         133      0.42%     73.56% |         132      0.42%     73.98% |         119      0.38%     74.36% |          79      0.25%     74.61% |         102      0.32%     74.93% |          77      0.24%     75.17% |          54      0.17%     75.34% |          95      0.30%     75.64% |          88      0.28%     75.92% |           9      0.03%     75.95% # delay distribution for all (Unspecified)
system.cpu1.allLatencyDist::overflows            7593     24.05%    100.00% # delay distribution for all (Unspecified)
system.cpu1.allLatencyDist::min_value          103000                       # delay distribution for all (Unspecified)
system.cpu1.allLatencyDist::max_value         5284000                       # delay distribution for all (Unspecified)
system.cpu1.allLatencyDist::total               31574                       # delay distribution for all (Unspecified)
system.cpu1.loadLatencyDist::bucket_size        10000                       # delay distribution for loads (Unspecified)
system.cpu1.loadLatencyDist::min_bucket             0                       # delay distribution for loads (Unspecified)
system.cpu1.loadLatencyDist::max_bucket       1600000                       # delay distribution for loads (Unspecified)
system.cpu1.loadLatencyDist::samples            15787                       # delay distribution for loads (Unspecified)
system.cpu1.loadLatencyDist::mean        2151525.115601                       # delay distribution for loads (Unspecified)
system.cpu1.loadLatencyDist::stdev       1221734.664451                       # delay distribution for loads (Unspecified)
system.cpu1.loadLatencyDist::underflows             0      0.00%      0.00% # delay distribution for loads (Unspecified)
system.cpu1.loadLatencyDist              |           0      0.00%      0.00% |           0      0.00%      0.00% |           0      0.00%      0.00% |           0      0.00%      0.00% |           0      0.00%      0.00% |           0      0.00%      0.00% |           0      0.00%      0.00% |           0      0.00%      0.00% |           0      0.00%      0.00% |           0      0.00%      0.00% |         102      0.65%      0.65% |          60      0.38%      1.03% |          85      0.54%      1.56% |         100      0.63%      2.20% |          15      0.10%      2.29% |          74      0.47%      2.76% |         582      3.69%      6.45% |         175      1.11%      7.56% |          11      0.07%      7.63% |          39      0.25%      7.87% |          69      0.44%      8.31% |         101      0.64%      8.95% |          16      0.10%      9.05% |          12      0.08%      9.13% |           2      0.01%      9.14% |          16      0.10%      9.24% |          30      0.19%      9.43% |          15      0.10%      9.53% |           9      0.06%      9.58% |           8      0.05%      9.63% |           7      0.04%      9.68% |          10      0.06%      9.74% |          13      0.08%      9.82% |           7      0.04%      9.87% |           8      0.05%      9.92% |           7      0.04%      9.96% |           5      0.03%     10.00% |           3      0.02%     10.01% |           6      0.04%     10.05% |           8      0.05%     10.10% |          18      0.11%     10.22% |           1      0.01%     10.22% |           5      0.03%     10.26% |           8      0.05%     10.31% |           9      0.06%     10.36% |           5      0.03%     10.39% |          11      0.07%     10.46% |           4      0.03%     10.49% |           4      0.03%     10.51% |           4      0.03%     10.54% |           2      0.01%     10.55% |           4      0.03%     10.58% |           6      0.04%     10.62% |           3      0.02%     10.64% |           3      0.02%     10.65% |           8      0.05%     10.71% |          10      0.06%     10.77% |           4      0.03%     10.79% |           1      0.01%     10.80% |           2      0.01%     10.81% |           1      0.01%     10.82% |           5      0.03%     10.85% |           3      0.02%     10.87% |           3      0.02%     10.89% |           5      0.03%     10.92% |           2      0.01%     10.93% |           1      0.01%     10.94% |           1      0.01%     10.95% |           1      0.01%     10.95% |           1      0.01%     10.96% |           0      0.00%     10.96% |           0      0.00%     10.96% |           0      0.00%     10.96% |           0      0.00%     10.96% |           0      0.00%     10.96% |           0      0.00%     10.96% |           0      0.00%     10.96% |           1      0.01%     10.96% |           1      0.01%     10.97% |           0      0.00%     10.97% |           1      0.01%     10.98% |           0      0.00%     10.98% |           0      0.00%     10.98% |           3      0.02%     11.00% |           0      0.00%     11.00% |           0      0.00%     11.00% |           0      0.00%     11.00% |           0      0.00%     11.00% |           1      0.01%     11.00% |           5      0.03%     11.03% |           2      0.01%     11.05% |           0      0.00%     11.05% |           2      0.01%     11.06% |           6      0.04%     11.10% |           5      0.03%     11.13% |           8      0.05%     11.18% |           8      0.05%     11.23% |          10      0.06%     11.29% |           4      0.03%     11.32% |           1      0.01%     11.33% |           2      0.01%     11.34% |           1      0.01%     11.34% |           5      0.03%     11.38% |           1      0.01%     11.38% |           0      0.00%     11.38% |           0      0.00%     11.38% |           1      0.01%     11.39% |           6      0.04%     11.43% |           0      0.00%     11.43% |           1      0.01%     11.43% |           0      0.00%     11.43% |           0      0.00%     11.43% |           1      0.01%     11.44% |           6      0.04%     11.48% |           7      0.04%     11.52% |           1      0.01%     11.53% |           3      0.02%     11.55% |           5      0.03%     11.58% |           1      0.01%     11.59% |          10      0.06%     11.65% |           9      0.06%     11.71% |           5      0.03%     11.74% |           1      0.01%     11.74% |           2      0.01%     11.76% |           7      0.04%     11.80% |           7      0.04%     11.85% |           7      0.04%     11.89% |          11      0.07%     11.96% |          11      0.07%     12.03% |          22      0.14%     12.17% |          12      0.08%     12.24% |          12      0.08%     12.32% |           4      0.03%     12.35% |          11      0.07%     12.42% |         591      3.74%     16.16% |         762      4.83%     20.99% |         126      0.80%     21.78% |         334      2.12%     23.90% |         435      2.76%     26.65% |          74      0.47%     27.12% |         395      2.50%     29.63% |         537      3.40%     33.03% |         322      2.04%     35.07% |         122      0.77%     35.84% |         395      2.50%     38.34% |         242      1.53%     39.87% |         195      1.24%     41.11% |         196      1.24%     42.35% |         292      1.85%     44.20% |         182      1.15%     45.35% |         182      1.15%     46.51% |         126      0.80%     47.30% |         127      0.80%     48.11% |         107      0.68%     48.79% |          76      0.48%     49.27% |          99      0.63%     49.90% |          77      0.49%     50.38% |          54      0.34%     50.73% |          92      0.58%     51.31% |          87      0.55%     51.86% |           9      0.06%     51.92% # delay distribution for loads (Unspecified)
system.cpu1.loadLatencyDist::overflows           7591     48.08%    100.00% # delay distribution for loads (Unspecified)
system.cpu1.loadLatencyDist::min_value         103000                       # delay distribution for loads (Unspecified)
system.cpu1.loadLatencyDist::max_value        5284000                       # delay distribution for loads (Unspecified)
system.cpu1.loadLatencyDist::total              15787                       # delay distribution for loads (Unspecified)
system.cpu1.storeLatencyDist::bucket_size        10000                       # delay distribution for stores (Unspecified)
system.cpu1.storeLatencyDist::min_bucket            0                       # delay distribution for stores (Unspecified)
system.cpu1.storeLatencyDist::max_bucket      1600000                       # delay distribution for stores (Unspecified)
system.cpu1.storeLatencyDist::samples           15787                       # delay distribution for stores (Unspecified)
system.cpu1.storeLatencyDist::mean       911111.610819                       # delay distribution for stores (Unspecified)
system.cpu1.storeLatencyDist::stdev      602287.503820                       # delay distribution for stores (Unspecified)
system.cpu1.storeLatencyDist::underflows            0      0.00%      0.00% # delay distribution for stores (Unspecified)
system.cpu1.storeLatencyDist             |           0      0.00%      0.00% |           0      0.00%      0.00% |           0      0.00%      0.00% |           0      0.00%      0.00% |           0      0.00%      0.00% |           0      0.00%      0.00% |           0      0.00%      0.00% |           0      0.00%      0.00% |           0      0.00%      0.00% |           0      0.00%      0.00% |        1998     12.66%     12.66% |         182      1.15%     13.81% |          31      0.20%     14.01% |         458      2.90%     16.91% |         300      1.90%     18.81% |         301      1.91%     20.71% |        1421      9.00%     29.71% |         755      4.78%     34.50% |          22      0.14%     34.64% |         105      0.67%     35.30% |          66      0.42%     35.72% |          17      0.11%     35.83% |          25      0.16%     35.99% |          21      0.13%     36.12% |          14      0.09%     36.21% |          14      0.09%     36.30% |          15      0.10%     36.39% |           7      0.04%     36.44% |           9      0.06%     36.49% |          19      0.12%     36.61% |          34      0.22%     36.83% |          33      0.21%     37.04% |           5      0.03%     37.07% |           9      0.06%     37.13% |          16      0.10%     37.23% |          12      0.08%     37.30% |          14      0.09%     37.39% |          14      0.09%     37.48% |          11      0.07%     37.55% |           5      0.03%     37.58% |          12      0.08%     37.66% |           9      0.06%     37.71% |           5      0.03%     37.75% |           7      0.04%     37.79% |           2      0.01%     37.80% |           2      0.01%     37.82% |           5      0.03%     37.85% |          14      0.09%     37.94% |           9      0.06%     37.99% |           5      0.03%     38.02% |           5      0.03%     38.06% |           6      0.04%     38.09% |           7      0.04%     38.14% |           2      0.01%     38.15% |           1      0.01%     38.16% |           5      0.03%     38.19% |           7      0.04%     38.23% |           2      0.01%     38.25% |           4      0.03%     38.27% |           9      0.06%     38.33% |           2      0.01%     38.34% |           3      0.02%     38.36% |           4      0.03%     38.39% |           3      0.02%     38.41% |           5      0.03%     38.44% |           3      0.02%     38.46% |           0      0.00%     38.46% |           0      0.00%     38.46% |           0      0.00%     38.46% |           0      0.00%     38.46% |           0      0.00%     38.46% |           0      0.00%     38.46% |           1      0.01%     38.46% |           3      0.02%     38.48% |           0      0.00%     38.48% |           0      0.00%     38.48% |           2      0.01%     38.49% |           5      0.03%     38.53% |          11      0.07%     38.60% |           4      0.03%     38.62% |           7      0.04%     38.66% |           7      0.04%     38.71% |           2      0.01%     38.72% |           3      0.02%     38.74% |           1      0.01%     38.75% |           5      0.03%     38.78% |          13      0.08%     38.86% |           8      0.05%     38.91% |           3      0.02%     38.93% |           0      0.00%     38.93% |           9      0.06%     38.99% |           4      0.03%     39.01% |           5      0.03%     39.04% |           1      0.01%     39.05% |           6      0.04%     39.09% |           3      0.02%     39.11% |           3      0.02%     39.13% |           0      0.00%     39.13% |           1      0.01%     39.13% |           6      0.04%     39.17% |           5      0.03%     39.20% |           6      0.04%     39.24% |           2      0.01%     39.25% |           1      0.01%     39.26% |           1      0.01%     39.27% |           2      0.01%     39.28% |           2      0.01%     39.29% |           2      0.01%     39.30% |           6      0.04%     39.34% |           5      0.03%     39.37% |          12      0.08%     39.45% |          15      0.10%     39.55% |           7      0.04%     39.59% |           5      0.03%     39.62% |          12      0.08%     39.70% |           7      0.04%     39.74% |           2      0.01%     39.75% |           9      0.06%     39.81% |          10      0.06%     39.87% |           8      0.05%     39.93% |          13      0.08%     40.01% |          19      0.12%     40.13% |           8      0.05%     40.18% |           4      0.03%     40.20% |           8      0.05%     40.25% |          12      0.08%     40.33% |          27      0.17%     40.50% |          11      0.07%     40.57% |          27      0.17%     40.74% |          10      0.06%     40.81% |          18      0.11%     40.92% |          28      0.18%     41.10% |          24      0.15%     41.25% |          30      0.19%     41.44% |         787      4.99%     46.42% |         995      6.30%     52.73% |         970      6.14%     58.87% |         640      4.05%     62.93% |         714      4.52%     67.45% |         700      4.43%     71.88% |         899      5.69%     77.58% |        1565      9.91%     87.49% |         745      4.72%     92.21% |         105      0.67%     92.87% |         494      3.13%     96.00% |         131      0.83%     96.83% |          39      0.25%     97.08% |         345      2.19%     99.27% |          68      0.43%     99.70% |           8      0.05%     99.75% |           4      0.03%     99.77% |           7      0.04%     99.82% |           5      0.03%     99.85% |          12      0.08%     99.92% |           3      0.02%     99.94% |           3      0.02%     99.96% |           0      0.00%     99.96% |           0      0.00%     99.96% |           3      0.02%     99.98% |           1      0.01%     99.99% |           0      0.00%     99.99% # delay distribution for stores (Unspecified)
system.cpu1.storeLatencyDist::overflows             2      0.01%    100.00% # delay distribution for stores (Unspecified)
system.cpu1.storeLatencyDist::min_value        103000                       # delay distribution for stores (Unspecified)
system.cpu1.storeLatencyDist::max_value       2037000                       # delay distribution for stores (Unspecified)
system.cpu1.storeLatencyDist::total             15787                       # delay distribution for stores (Unspecified)
system.cpu1.initToCoalesceLatency::bucket_size        10000                       # Ticks from vmem inst initiateAcc to coalescer issue (Unspecified)
system.cpu1.initToCoalesceLatency::min_bucket            0                       # Ticks from vmem inst initiateAcc to coalescer issue (Unspecified)
system.cpu1.initToCoalesceLatency::max_bucket      1600000                       # Ticks from vmem inst initiateAcc to coalescer issue (Unspecified)
system.cpu1.initToCoalesceLatency::samples            0                       # Ticks from vmem inst initiateAcc to coalescer issue (Unspecified)
system.cpu1.initToCoalesceLatency::mean           nan                       # Ticks from vmem inst initiateAcc to coalescer issue (Unspecified)
system.cpu1.initToCoalesceLatency::stdev          nan                       # Ticks from vmem inst initiateAcc to coalescer issue (Unspecified)
system.cpu1.initToCoalesceLatency::underflows            0                       # Ticks from vmem inst initiateAcc to coalescer issue (Unspecified)
system.cpu1.initToCoalesceLatency        |           0                       |           0                       |           0                       |           0                       |           0                       |           0                       |           0                       |           0                       |           0                       |           0                       |           0                       |           0                       |           0                       |           0                       |           0                       |           0                       |           0                       |           0                       |           0                       |           0                       |           0                       |           0                       |           0                       |           0                       |           0                       |           0                       |           0                       |           0                       |           0                       |           0                       |           0                       |           0                       |           0                       |           0                       |           0                       |           0                       |           0                       |           0                       |           0                       |           0                       |           0                       |           0                       |           0                       |           0                       |           0                       |           0                       |           0                       |           0                       |           0                       |           0                       |           0                       |           0                       |           0                       |           0                       |           0                       |           0                       |           0                       |           0                       |           0                       |           0                       |           0                       |           0                       |           0                       |           0                       |           0                       |           0                       |           0                       |           0                       |           0                       |           0                       |           0                       |           0                       |           0                       |           0                       |           0                       |           0                       |           0                       |           0                       |           0                       |           0                       |           0                       |           0                       |           0                       |           0                       |           0                       |           0                       |           0                       |           0                       |           0                       |           0                       |           0                       |           0                       |           0                       |           0                       |           0                       |           0                       |           0                       |           0                       |           0                       |           0                       |           0                       |           0                       |           0                       |           0                       |           0                       |           0                       |           0                       |           0                       |           0                       |           0                       |           0                       |           0                       |           0                       |           0                       |           0                       |           0                       |           0                       |           0                       |           0                       |           0                       |           0                       |           0                       |           0                       |           0                       |           0                       |           0                       |           0                       |           0                       |           0                       |           0                       |           0                       |           0                       |           0                       |           0                       |           0                       |           0                       |           0                       |           0                       |           0                       |           0                       |           0                       |           0                       |           0                       |           0                       |           0                       |           0                       |           0                       |           0                       |           0                       |           0                       |           0                       |           0                       |           0                       |           0                       |           0                       |           0                       |           0                       |           0                       |           0                       |           0                       |           0                       # Ticks from vmem inst initiateAcc to coalescer issue (Unspecified)
system.cpu1.initToCoalesceLatency::overflows            0                       # Ticks from vmem inst initiateAcc to coalescer issue (Unspecified)
system.cpu1.initToCoalesceLatency::min_value            0                       # Ticks from vmem inst initiateAcc to coalescer issue (Unspecified)
system.cpu1.initToCoalesceLatency::max_value            0                       # Ticks from vmem inst initiateAcc to coalescer issue (Unspecified)
system.cpu1.initToCoalesceLatency::total            0                       # Ticks from vmem inst initiateAcc to coalescer issue (Unspecified)
system.cpu1.rubyNetworkLatency::bucket_size        10000                       # Ticks from coalescer issue to coalescer hit callback (Unspecified)
system.cpu1.rubyNetworkLatency::min_bucket            0                       # Ticks from coalescer issue to coalescer hit callback (Unspecified)
system.cpu1.rubyNetworkLatency::max_bucket      1600000                       # Ticks from coalescer issue to coalescer hit callback (Unspecified)
system.cpu1.rubyNetworkLatency::samples             0                       # Ticks from coalescer issue to coalescer hit callback (Unspecified)
system.cpu1.rubyNetworkLatency::mean              nan                       # Ticks from coalescer issue to coalescer hit callback (Unspecified)
system.cpu1.rubyNetworkLatency::stdev             nan                       # Ticks from coalescer issue to coalescer hit callback (Unspecified)
system.cpu1.rubyNetworkLatency::underflows            0                       # Ticks from coalescer issue to coalescer hit callback (Unspecified)
system.cpu1.rubyNetworkLatency           |           0                       |           0                       |           0                       |           0                       |           0                       |           0                       |           0                       |           0                       |           0                       |           0                       |           0                       |           0                       |           0                       |           0                       |           0                       |           0                       |           0                       |           0                       |           0                       |           0                       |           0                       |           0                       |           0                       |           0                       |           0                       |           0                       |           0                       |           0                       |           0                       |           0                       |           0                       |           0                       |           0                       |           0                       |           0                       |           0                       |           0                       |           0                       |           0                       |           0                       |           0                       |           0                       |           0                       |           0                       |           0                       |           0                       |           0                       |           0                       |           0                       |           0                       |           0                       |           0                       |           0                       |           0                       |           0                       |           0                       |           0                       |           0                       |           0                       |           0                       |           0                       |           0                       |           0                       |           0                       |           0                       |           0                       |           0                       |           0                       |           0                       |           0                       |           0                       |           0                       |           0                       |           0                       |           0                       |           0                       |           0                       |           0                       |           0                       |           0                       |           0                       |           0                       |           0                       |           0                       |           0                       |           0                       |           0                       |           0                       |           0                       |           0                       |           0                       |           0                       |           0                       |           0                       |           0                       |           0                       |           0                       |           0                       |           0                       |           0                       |           0                       |           0                       |           0                       |           0                       |           0                       |           0                       |           0                       |           0                       |           0                       |           0                       |           0                       |           0                       |           0                       |           0                       |           0                       |           0                       |           0                       |           0                       |           0                       |           0                       |           0                       |           0                       |           0                       |           0                       |           0                       |           0                       |           0                       |           0                       |           0                       |           0                       |           0                       |           0                       |           0                       |           0                       |           0                       |           0                       |           0                       |           0                       |           0                       |           0                       |           0                       |           0                       |           0                       |           0                       |           0                       |           0                       |           0                       |           0                       |           0                       |           0                       |           0                       |           0                       |           0                       |           0                       |           0                       |           0                       |           0                       |           0                       |           0                       |           0                       |           0                       # Ticks from coalescer issue to coalescer hit callback (Unspecified)
system.cpu1.rubyNetworkLatency::overflows            0                       # Ticks from coalescer issue to coalescer hit callback (Unspecified)
system.cpu1.rubyNetworkLatency::min_value            0                       # Ticks from coalescer issue to coalescer hit callback (Unspecified)
system.cpu1.rubyNetworkLatency::max_value            0                       # Ticks from coalescer issue to coalescer hit callback (Unspecified)
system.cpu1.rubyNetworkLatency::total               0                       # Ticks from coalescer issue to coalescer hit callback (Unspecified)
system.cpu1.gmEnqueueLatency::bucket_size        10000                       # Ticks from coalescer hit callback to GM pipe enqueue (Unspecified)
system.cpu1.gmEnqueueLatency::min_bucket            0                       # Ticks from coalescer hit callback to GM pipe enqueue (Unspecified)
system.cpu1.gmEnqueueLatency::max_bucket      1600000                       # Ticks from coalescer hit callback to GM pipe enqueue (Unspecified)
system.cpu1.gmEnqueueLatency::samples               0                       # Ticks from coalescer hit callback to GM pipe enqueue (Unspecified)
system.cpu1.gmEnqueueLatency::mean                nan                       # Ticks from coalescer hit callback to GM pipe enqueue (Unspecified)
system.cpu1.gmEnqueueLatency::stdev               nan                       # Ticks from coalescer hit callback to GM pipe enqueue (Unspecified)
system.cpu1.gmEnqueueLatency::underflows            0                       # Ticks from coalescer hit callback to GM pipe enqueue (Unspecified)
system.cpu1.gmEnqueueLatency             |           0                       |           0                       |           0                       |           0                       |           0                       |           0                       |           0                       |           0                       |           0                       |           0                       |           0                       |           0                       |           0                       |           0                       |           0                       |           0                       |           0                       |           0                       |           0                       |           0                       |           0                       |           0                       |           0                       |           0                       |           0                       |           0                       |           0                       |           0                       |           0                       |           0                       |           0                       |           0                       |           0                       |           0                       |           0                       |           0                       |           0                       |           0                       |           0                       |           0                       |           0                       |           0                       |           0                       |           0                       |           0                       |           0                       |           0                       |           0                       |           0                       |           0                       |           0                       |           0                       |           0                       |           0                       |           0                       |           0                       |           0                       |           0                       |           0                       |           0                       |           0                       |           0                       |           0                       |           0                       |           0                       |           0                       |           0                       |           0                       |           0                       |           0                       |           0                       |           0                       |           0                       |           0                       |           0                       |           0                       |           0                       |           0                       |           0                       |           0                       |           0                       |           0                       |           0                       |           0                       |           0                       |           0                       |           0                       |           0                       |           0                       |           0                       |           0                       |           0                       |           0                       |           0                       |           0                       |           0                       |           0                       |           0                       |           0                       |           0                       |           0                       |           0                       |           0                       |           0                       |           0                       |           0                       |           0                       |           0                       |           0                       |           0                       |           0                       |           0                       |           0                       |           0                       |           0                       |           0                       |           0                       |           0                       |           0                       |           0                       |           0                       |           0                       |           0                       |           0                       |           0                       |           0                       |           0                       |           0                       |           0                       |           0                       |           0                       |           0                       |           0                       |           0                       |           0                       |           0                       |           0                       |           0                       |           0                       |           0                       |           0                       |           0                       |           0                       |           0                       |           0                       |           0                       |           0                       |           0                       |           0                       |           0                       |           0                       |           0                       |           0                       |           0                       |           0                       |           0                       |           0                       |           0                       |           0                       |           0                       |           0                       # Ticks from coalescer hit callback to GM pipe enqueue (Unspecified)
system.cpu1.gmEnqueueLatency::overflows             0                       # Ticks from coalescer hit callback to GM pipe enqueue (Unspecified)
system.cpu1.gmEnqueueLatency::min_value             0                       # Ticks from coalescer hit callback to GM pipe enqueue (Unspecified)
system.cpu1.gmEnqueueLatency::max_value             0                       # Ticks from coalescer hit callback to GM pipe enqueue (Unspecified)
system.cpu1.gmEnqueueLatency::total                 0                       # Ticks from coalescer hit callback to GM pipe enqueue (Unspecified)
system.cpu1.gmToCompleteLatency::bucket_size        10000                       # Ticks queued in GM pipes ordered response buffer (Unspecified)
system.cpu1.gmToCompleteLatency::min_bucket            0                       # Ticks queued in GM pipes ordered response buffer (Unspecified)
system.cpu1.gmToCompleteLatency::max_bucket      1600000                       # Ticks queued in GM pipes ordered response buffer (Unspecified)
system.cpu1.gmToCompleteLatency::samples            0                       # Ticks queued in GM pipes ordered response buffer (Unspecified)
system.cpu1.gmToCompleteLatency::mean             nan                       # Ticks queued in GM pipes ordered response buffer (Unspecified)
system.cpu1.gmToCompleteLatency::stdev            nan                       # Ticks queued in GM pipes ordered response buffer (Unspecified)
system.cpu1.gmToCompleteLatency::underflows            0                       # Ticks queued in GM pipes ordered response buffer (Unspecified)
system.cpu1.gmToCompleteLatency          |           0                       |           0                       |           0                       |           0                       |           0                       |           0                       |           0                       |           0                       |           0                       |           0                       |           0                       |           0                       |           0                       |           0                       |           0                       |           0                       |           0                       |           0                       |           0                       |           0                       |           0                       |           0                       |           0                       |           0                       |           0                       |           0                       |           0                       |           0                       |           0                       |           0                       |           0                       |           0                       |           0                       |           0                       |           0                       |           0                       |           0                       |           0                       |           0                       |           0                       |           0                       |           0                       |           0                       |           0                       |           0                       |           0                       |           0                       |           0                       |           0                       |           0                       |           0                       |           0                       |           0                       |           0                       |           0                       |           0                       |           0                       |           0                       |           0                       |           0                       |           0                       |           0                       |           0                       |           0                       |           0                       |           0                       |           0                       |           0                       |           0                       |           0                       |           0                       |           0                       |           0                       |           0                       |           0                       |           0                       |           0                       |           0                       |           0                       |           0                       |           0                       |           0                       |           0                       |           0                       |           0                       |           0                       |           0                       |           0                       |           0                       |           0                       |           0                       |           0                       |           0                       |           0                       |           0                       |           0                       |           0                       |           0                       |           0                       |           0                       |           0                       |           0                       |           0                       |           0                       |           0                       |           0                       |           0                       |           0                       |           0                       |           0                       |           0                       |           0                       |           0                       |           0                       |           0                       |           0                       |           0                       |           0                       |           0                       |           0                       |           0                       |           0                       |           0                       |           0                       |           0                       |           0                       |           0                       |           0                       |           0                       |           0                       |           0                       |           0                       |           0                       |           0                       |           0                       |           0                       |           0                       |           0                       |           0                       |           0                       |           0                       |           0                       |           0                       |           0                       |           0                       |           0                       |           0                       |           0                       |           0                       |           0                       |           0                       |           0                       |           0                       |           0                       |           0                       |           0                       |           0                       |           0                       |           0                       |           0                       |           0                       # Ticks queued in GM pipes ordered response buffer (Unspecified)
system.cpu1.gmToCompleteLatency::overflows            0                       # Ticks queued in GM pipes ordered response buffer (Unspecified)
system.cpu1.gmToCompleteLatency::min_value            0                       # Ticks queued in GM pipes ordered response buffer (Unspecified)
system.cpu1.gmToCompleteLatency::max_value            0                       # Ticks queued in GM pipes ordered response buffer (Unspecified)
system.cpu1.gmToCompleteLatency::total              0                       # Ticks queued in GM pipes ordered response buffer (Unspecified)
system.cpu1.coalsrLineAddresses::bucket_size            1                       # Number of cache lines for coalesced request (Unspecified)
system.cpu1.coalsrLineAddresses::min_bucket            0                       # Number of cache lines for coalesced request (Unspecified)
system.cpu1.coalsrLineAddresses::max_bucket           20                       # Number of cache lines for coalesced request (Unspecified)
system.cpu1.coalsrLineAddresses::samples        31574                       # Number of cache lines for coalesced request (Unspecified)
system.cpu1.coalsrLineAddresses::mean               0                       # Number of cache lines for coalesced request (Unspecified)
system.cpu1.coalsrLineAddresses::stdev              0                       # Number of cache lines for coalesced request (Unspecified)
system.cpu1.coalsrLineAddresses::underflows            0      0.00%      0.00% # Number of cache lines for coalesced request (Unspecified)
system.cpu1.coalsrLineAddresses          |       31574    100.00%    100.00% |           0      0.00%    100.00% |           0      0.00%    100.00% |           0      0.00%    100.00% |           0      0.00%    100.00% |           0      0.00%    100.00% |           0      0.00%    100.00% |           0      0.00%    100.00% |           0      0.00%    100.00% |           0      0.00%    100.00% |           0      0.00%    100.00% |           0      0.00%    100.00% |           0      0.00%    100.00% |           0      0.00%    100.00% |           0      0.00%    100.00% |           0      0.00%    100.00% |           0      0.00%    100.00% |           0      0.00%    100.00% |           0      0.00%    100.00% |           0      0.00%    100.00% |           0      0.00%    100.00% # Number of cache lines for coalesced request (Unspecified)
system.cpu1.coalsrLineAddresses::overflows            0      0.00%    100.00% # Number of cache lines for coalesced request (Unspecified)
system.cpu1.coalsrLineAddresses::min_value            0                       # Number of cache lines for coalesced request (Unspecified)
system.cpu1.coalsrLineAddresses::max_value            0                       # Number of cache lines for coalesced request (Unspecified)
system.cpu1.coalsrLineAddresses::total          31574                       # Number of cache lines for coalesced request (Unspecified)
system.cpu1.shaderActiveTicks              1579902997                       # Total ticks that any CU attached to this shader is active (Unspecified)
system.cpu1.vectorInstSrcOperand::0            151495                       # vector instruction source operand distribution (Unspecified)
system.cpu1.vectorInstSrcOperand::1            116208                       # vector instruction source operand distribution (Unspecified)
system.cpu1.vectorInstSrcOperand::2            137450                       # vector instruction source operand distribution (Unspecified)
system.cpu1.vectorInstSrcOperand::3                 0                       # vector instruction source operand distribution (Unspecified)
system.cpu1.vectorInstDstOperand::0            151819                       # vector instruction destination operand distribution (Unspecified)
system.cpu1.vectorInstDstOperand::1            253334                       # vector instruction destination operand distribution (Unspecified)
system.cpu1.vectorInstDstOperand::2                 0                       # vector instruction destination operand distribution (Unspecified)
system.cpu1.vectorInstDstOperand::3                 0                       # vector instruction destination operand distribution (Unspecified)
system.cpu1.CUs0.vALUInsts                      65284                       # Number of vector ALU insts issued. (Unspecified)
system.cpu1.CUs0.vALUInstsPerWF            103.625397                       # The avg. number of vector ALU insts issued per-wavefront. (Unspecified)
system.cpu1.CUs0.sALUInsts                      10444                       # Number of scalar ALU insts issued. (Unspecified)
system.cpu1.CUs0.sALUInstsPerWF             16.577778                       # The avg. number of scalar ALU insts issued per-wavefront. (Unspecified)
system.cpu1.CUs0.instCyclesVALU                 65284                       # Number of cycles needed to execute VALU insts. (Unspecified)
system.cpu1.CUs0.instCyclesSALU                 10444                       # Number of cycles needed to execute SALU insts. (Unspecified)
system.cpu1.CUs0.threadCyclesVALU             4177816                       # Number of thread cycles used to execute vector ALU ops. Similar to instCyclesVALU but multiplied by the number of active threads. (Unspecified)
system.cpu1.CUs0.vALUUtilization            99.991384                       # Percentage of active vector ALU threads in a wave. (Unspecified)
system.cpu1.CUs0.ldsNoFlatInsts                     0                       # Number of LDS insts issued, not including FLAT accesses that resolve to LDS. (Unspecified)
system.cpu1.CUs0.ldsNoFlatInstsPerWF                0                       # The avg. number of LDS insts (not including FLAT accesses that resolve to LDS) per-wavefront. (Unspecified)
system.cpu1.CUs0.flatVMemInsts                   7844                       # The number of FLAT insts that resolve to vmem issued. (Unspecified)
system.cpu1.CUs0.flatVMemInstsPerWF         12.450794                       # The average number of FLAT insts that resolve to vmem issued per-wavefront. (Unspecified)
system.cpu1.CUs0.flatLDSInsts                       0                       # The number of FLAT insts that resolve to LDS issued. (Unspecified)
system.cpu1.CUs0.flatLDSInstsPerWF                  0                       # The average number of FLAT insts that resolve to LDS issued per-wavefront. (Unspecified)
system.cpu1.CUs0.vectorMemWrites                    0                       # Number of vector mem write insts (excluding FLAT insts). (Unspecified)
system.cpu1.CUs0.vectorMemWritesPerWF               0                       # The average number of vector mem write insts (excluding FLAT insts) per-wavefront. (Unspecified)
system.cpu1.CUs0.vectorMemReads                     0                       # Number of vector mem read insts (excluding FLAT insts). (Unspecified)
system.cpu1.CUs0.vectorMemReadsPerWF                0                       # The avg. number of vector mem read insts (excluding FLAT insts) per-wavefront. (Unspecified)
system.cpu1.CUs0.scalarMemWrites                    0                       # Number of scalar mem write insts. (Unspecified)
system.cpu1.CUs0.scalarMemWritesPerWF               0                       # The average number of scalar mem write insts per-wavefront. (Unspecified)
system.cpu1.CUs0.scalarMemReads                  2764                       # Number of scalar mem read insts. (Unspecified)
system.cpu1.CUs0.scalarMemReadsPerWF         4.387302                       # The average number of scalar mem read insts per-wavefront. (Unspecified)
system.cpu1.CUs0.vectorMemReadsPerKiloInst            0                       # Number of vector mem reads per kilo-instruction (Unspecified)
system.cpu1.CUs0.vectorMemWritesPerKiloInst            0                       # Number of vector mem writes per kilo-instruction (Unspecified)
system.cpu1.CUs0.vectorMemInstsPerKiloInst            0                       # Number of vector mem insts per kilo-instruction (Unspecified)
system.cpu1.CUs0.scalarMemReadsPerKiloInst    27.541402                       # Number of scalar mem reads per kilo-instruction (Unspecified)
system.cpu1.CUs0.scalarMemWritesPerKiloInst            0                       # Number of scalar mem writes per kilo-instruction (Unspecified)
system.cpu1.CUs0.scalarMemInstsPerKiloInst    27.541402                       # Number of scalar mem insts per kilo-instruction (Unspecified)
system.cpu1.CUs0.instCyclesVMemPerSimd::0         2988                       # Number of cycles to send address, command, data from VRF to vector memory unit, per SIMD (Unspecified)
system.cpu1.CUs0.instCyclesVMemPerSimd::1         2982                       # Number of cycles to send address, command, data from VRF to vector memory unit, per SIMD (Unspecified)
system.cpu1.CUs0.instCyclesVMemPerSimd::2         2898                       # Number of cycles to send address, command, data from VRF to vector memory unit, per SIMD (Unspecified)
system.cpu1.CUs0.instCyclesVMemPerSimd::3         2898                       # Number of cycles to send address, command, data from VRF to vector memory unit, per SIMD (Unspecified)
system.cpu1.CUs0.instCyclesScMemPerSimd::0          648                       # Number of cycles to send address, command, data from SRF to scalar memory unit, per SIMD (Unspecified)
system.cpu1.CUs0.instCyclesScMemPerSimd::1          720                       # Number of cycles to send address, command, data from SRF to scalar memory unit, per SIMD (Unspecified)
system.cpu1.CUs0.instCyclesScMemPerSimd::2          704                       # Number of cycles to send address, command, data from SRF to scalar memory unit, per SIMD (Unspecified)
system.cpu1.CUs0.instCyclesScMemPerSimd::3          692                       # Number of cycles to send address, command, data from SRF to scalar memory unit, per SIMD (Unspecified)
system.cpu1.CUs0.instCyclesLdsPerSimd::0            0                       # Number of cycles to send address, command, data from VRF to LDS unit, per SIMD (Unspecified)
system.cpu1.CUs0.instCyclesLdsPerSimd::1            0                       # Number of cycles to send address, command, data from VRF to LDS unit, per SIMD (Unspecified)
system.cpu1.CUs0.instCyclesLdsPerSimd::2            0                       # Number of cycles to send address, command, data from VRF to LDS unit, per SIMD (Unspecified)
system.cpu1.CUs0.instCyclesLdsPerSimd::3            0                       # Number of cycles to send address, command, data from VRF to LDS unit, per SIMD (Unspecified)
system.cpu1.CUs0.globalReads                     3922                       # Number of reads to the global segment (Unspecified)
system.cpu1.CUs0.globalWrites                    3922                       # Number of writes to the global segment (Unspecified)
system.cpu1.CUs0.globalMemInsts                  7844                       # Number of memory instructions sent to the global segment (Unspecified)
system.cpu1.CUs0.argReads                           0                       # Number of reads to the arg segment (Unspecified)
system.cpu1.CUs0.argWrites                          0                       # NUmber of writes to the arg segment (Unspecified)
system.cpu1.CUs0.argMemInsts                        0                       # Number of memory instructions sent to the arg segment (Unspecified)
system.cpu1.CUs0.spillReads                         0                       # Number of reads to the spill segment (Unspecified)
system.cpu1.CUs0.spillWrites                        0                       # Number of writes to the spill segment (Unspecified)
system.cpu1.CUs0.spillMemInsts                      0                       # Number of memory instructions sent to the spill segment (Unspecified)
system.cpu1.CUs0.groupReads                         0                       # Number of reads to the group segment (Unspecified)
system.cpu1.CUs0.groupWrites                        0                       # Number of writes to the group segment (Unspecified)
system.cpu1.CUs0.groupMemInsts                      0                       # Number of memory instructions sent to the group segment (Unspecified)
system.cpu1.CUs0.privReads                          0                       # Number of reads to the private segment (Unspecified)
system.cpu1.CUs0.privWrites                         0                       # Number of writes to the private segment (Unspecified)
system.cpu1.CUs0.privMemInsts                       0                       # Number of memory instructions sent to the private segment (Unspecified)
system.cpu1.CUs0.readonlyReads                      0                       # Number of reads to the readonly segment (Unspecified)
system.cpu1.CUs0.readonlyWrites                     0                       # Number of memory instructions sent to the readonly segment (Unspecified)
system.cpu1.CUs0.readonlyMemInsts                   0                       # Number of memory instructions sent to the readonly segment (Unspecified)
system.cpu1.CUs0.kernargReads                       0                       # Number of reads sent to the kernarg segment (Unspecified)
system.cpu1.CUs0.kernargWrites                      0                       # Number of memory instructions sent to the kernarg segment (Unspecified)
system.cpu1.CUs0.kernargMemInsts                    0                       # Number of memory instructions sent to the kernarg segment (Unspecified)
system.cpu1.CUs0.waveLevelParallelism::samples          630                       # wave level parallelism: count of active waves at wave launch (Unspecified)
system.cpu1.CUs0.waveLevelParallelism::mean    10.622222                       # wave level parallelism: count of active waves at wave launch (Unspecified)
system.cpu1.CUs0.waveLevelParallelism::stdev     4.255005                       # wave level parallelism: count of active waves at wave launch (Unspecified)
system.cpu1.CUs0.waveLevelParallelism::underflows            0      0.00%      0.00% # wave level parallelism: count of active waves at wave launch (Unspecified)
system.cpu1.CUs0.waveLevelParallelism::0            3      0.48%      0.48% # wave level parallelism: count of active waves at wave launch (Unspecified)
system.cpu1.CUs0.waveLevelParallelism::1            3      0.48%      0.95% # wave level parallelism: count of active waves at wave launch (Unspecified)
system.cpu1.CUs0.waveLevelParallelism::2            3      0.48%      1.43% # wave level parallelism: count of active waves at wave launch (Unspecified)
system.cpu1.CUs0.waveLevelParallelism::3          118     18.73%     20.16% # wave level parallelism: count of active waves at wave launch (Unspecified)
system.cpu1.CUs0.waveLevelParallelism::4            1      0.16%     20.32% # wave level parallelism: count of active waves at wave launch (Unspecified)
system.cpu1.CUs0.waveLevelParallelism::5            1      0.16%     20.48% # wave level parallelism: count of active waves at wave launch (Unspecified)
system.cpu1.CUs0.waveLevelParallelism::6            2      0.32%     20.79% # wave level parallelism: count of active waves at wave launch (Unspecified)
system.cpu1.CUs0.waveLevelParallelism::7            2      0.32%     21.11% # wave level parallelism: count of active waves at wave launch (Unspecified)
system.cpu1.CUs0.waveLevelParallelism::8            2      0.32%     21.43% # wave level parallelism: count of active waves at wave launch (Unspecified)
system.cpu1.CUs0.waveLevelParallelism::9           29      4.60%     26.03% # wave level parallelism: count of active waves at wave launch (Unspecified)
system.cpu1.CUs0.waveLevelParallelism::10           35      5.56%     31.59% # wave level parallelism: count of active waves at wave launch (Unspecified)
system.cpu1.CUs0.waveLevelParallelism::11           37      5.87%     37.46% # wave level parallelism: count of active waves at wave launch (Unspecified)
system.cpu1.CUs0.waveLevelParallelism::12          123     19.52%     56.98% # wave level parallelism: count of active waves at wave launch (Unspecified)
system.cpu1.CUs0.waveLevelParallelism::13           96     15.24%     72.22% # wave level parallelism: count of active waves at wave launch (Unspecified)
system.cpu1.CUs0.waveLevelParallelism::14           89     14.13%     86.35% # wave level parallelism: count of active waves at wave launch (Unspecified)
system.cpu1.CUs0.waveLevelParallelism::15           86     13.65%    100.00% # wave level parallelism: count of active waves at wave launch (Unspecified)
system.cpu1.CUs0.waveLevelParallelism::16            0      0.00%    100.00% # wave level parallelism: count of active waves at wave launch (Unspecified)
system.cpu1.CUs0.waveLevelParallelism::17            0      0.00%    100.00% # wave level parallelism: count of active waves at wave launch (Unspecified)
system.cpu1.CUs0.waveLevelParallelism::18            0      0.00%    100.00% # wave level parallelism: count of active waves at wave launch (Unspecified)
system.cpu1.CUs0.waveLevelParallelism::19            0      0.00%    100.00% # wave level parallelism: count of active waves at wave launch (Unspecified)
system.cpu1.CUs0.waveLevelParallelism::20            0      0.00%    100.00% # wave level parallelism: count of active waves at wave launch (Unspecified)
system.cpu1.CUs0.waveLevelParallelism::21            0      0.00%    100.00% # wave level parallelism: count of active waves at wave launch (Unspecified)
system.cpu1.CUs0.waveLevelParallelism::22            0      0.00%    100.00% # wave level parallelism: count of active waves at wave launch (Unspecified)
system.cpu1.CUs0.waveLevelParallelism::23            0      0.00%    100.00% # wave level parallelism: count of active waves at wave launch (Unspecified)
system.cpu1.CUs0.waveLevelParallelism::24            0      0.00%    100.00% # wave level parallelism: count of active waves at wave launch (Unspecified)
system.cpu1.CUs0.waveLevelParallelism::25            0      0.00%    100.00% # wave level parallelism: count of active waves at wave launch (Unspecified)
system.cpu1.CUs0.waveLevelParallelism::26            0      0.00%    100.00% # wave level parallelism: count of active waves at wave launch (Unspecified)
system.cpu1.CUs0.waveLevelParallelism::27            0      0.00%    100.00% # wave level parallelism: count of active waves at wave launch (Unspecified)
system.cpu1.CUs0.waveLevelParallelism::28            0      0.00%    100.00% # wave level parallelism: count of active waves at wave launch (Unspecified)
system.cpu1.CUs0.waveLevelParallelism::29            0      0.00%    100.00% # wave level parallelism: count of active waves at wave launch (Unspecified)
system.cpu1.CUs0.waveLevelParallelism::30            0      0.00%    100.00% # wave level parallelism: count of active waves at wave launch (Unspecified)
system.cpu1.CUs0.waveLevelParallelism::31            0      0.00%    100.00% # wave level parallelism: count of active waves at wave launch (Unspecified)
system.cpu1.CUs0.waveLevelParallelism::32            0      0.00%    100.00% # wave level parallelism: count of active waves at wave launch (Unspecified)
system.cpu1.CUs0.waveLevelParallelism::33            0      0.00%    100.00% # wave level parallelism: count of active waves at wave launch (Unspecified)
system.cpu1.CUs0.waveLevelParallelism::34            0      0.00%    100.00% # wave level parallelism: count of active waves at wave launch (Unspecified)
system.cpu1.CUs0.waveLevelParallelism::35            0      0.00%    100.00% # wave level parallelism: count of active waves at wave launch (Unspecified)
system.cpu1.CUs0.waveLevelParallelism::36            0      0.00%    100.00% # wave level parallelism: count of active waves at wave launch (Unspecified)
system.cpu1.CUs0.waveLevelParallelism::37            0      0.00%    100.00% # wave level parallelism: count of active waves at wave launch (Unspecified)
system.cpu1.CUs0.waveLevelParallelism::38            0      0.00%    100.00% # wave level parallelism: count of active waves at wave launch (Unspecified)
system.cpu1.CUs0.waveLevelParallelism::39            0      0.00%    100.00% # wave level parallelism: count of active waves at wave launch (Unspecified)
system.cpu1.CUs0.waveLevelParallelism::40            0      0.00%    100.00% # wave level parallelism: count of active waves at wave launch (Unspecified)
system.cpu1.CUs0.waveLevelParallelism::overflows            0      0.00%    100.00% # wave level parallelism: count of active waves at wave launch (Unspecified)
system.cpu1.CUs0.waveLevelParallelism::min_value            0                       # wave level parallelism: count of active waves at wave launch (Unspecified)
system.cpu1.CUs0.waveLevelParallelism::max_value           15                       # wave level parallelism: count of active waves at wave launch (Unspecified)
system.cpu1.CUs0.waveLevelParallelism::total          630                       # wave level parallelism: count of active waves at wave launch (Unspecified)
system.cpu1.CUs0.tlbRequests                   501872                       # number of uncoalesced requests (Unspecified)
system.cpu1.CUs0.tlbCycles               392649174136                       # total number of cycles for all uncoalesced requests (Unspecified)
system.cpu1.CUs0.tlbLatency              782369.158144                       # Avg. translation latency for data translations (Unspecified)
system.cpu1.CUs0.hitsPerTLBLevel::page_table        94328                       # TLB hits distribution (0 for page table, x for Lx-TLB) (Unspecified)
system.cpu1.CUs0.hitsPerTLBLevel::L1_TLB       390328                       # TLB hits distribution (0 for page table, x for Lx-TLB) (Unspecified)
system.cpu1.CUs0.hitsPerTLBLevel::L2_TLB        17216                       # TLB hits distribution (0 for page table, x for Lx-TLB) (Unspecified)
system.cpu1.CUs0.hitsPerTLBLevel::L3_TLB            0                       # TLB hits distribution (0 for page table, x for Lx-TLB) (Unspecified)
system.cpu1.CUs0.ldsBankAccesses                    0                       # Total number of LDS bank accesses (Unspecified)
system.cpu1.CUs0.ldsBankConflictDist::samples            0                       # Number of bank conflicts per LDS memory packet (Unspecified)
system.cpu1.CUs0.ldsBankConflictDist::mean          nan                       # Number of bank conflicts per LDS memory packet (Unspecified)
system.cpu1.CUs0.ldsBankConflictDist::stdev          nan                       # Number of bank conflicts per LDS memory packet (Unspecified)
system.cpu1.CUs0.ldsBankConflictDist::underflows            0                       # Number of bank conflicts per LDS memory packet (Unspecified)
system.cpu1.CUs0.ldsBankConflictDist::0-1            0                       # Number of bank conflicts per LDS memory packet (Unspecified)
system.cpu1.CUs0.ldsBankConflictDist::2-3            0                       # Number of bank conflicts per LDS memory packet (Unspecified)
system.cpu1.CUs0.ldsBankConflictDist::4-5            0                       # Number of bank conflicts per LDS memory packet (Unspecified)
system.cpu1.CUs0.ldsBankConflictDist::6-7            0                       # Number of bank conflicts per LDS memory packet (Unspecified)
system.cpu1.CUs0.ldsBankConflictDist::8-9            0                       # Number of bank conflicts per LDS memory packet (Unspecified)
system.cpu1.CUs0.ldsBankConflictDist::10-11            0                       # Number of bank conflicts per LDS memory packet (Unspecified)
system.cpu1.CUs0.ldsBankConflictDist::12-13            0                       # Number of bank conflicts per LDS memory packet (Unspecified)
[...]
system.Shader.cacheBlockRoundTrip8::overflows            0                       # Coalsr-to-coalsr time for the Nth cache block in an inst (Unspecified)
system.Shader.cacheBlockRoundTrip8::min_value            0                       # Coalsr-to-coalsr time for the Nth cache block in an inst (Unspecified)
system.Shader.cacheBlockRoundTrip8::max_value            0                       # Coalsr-to-coalsr time for the Nth cache block in an inst (Unspecified)
system.Shader.cacheBlockRoundTrip8::total            0                       # Coalsr-to-coalsr time for the Nth cache block in an inst (Unspecified)
system.Shader.cacheBlockRoundTrip9::bucket_size        10000                       # Coalsr-to-coalsr time for the Nth cache block in an inst (Unspecified)
system.Shader.cacheBlockRoundTrip9::min_bucket            0                       # Coalsr-to-coalsr time for the Nth cache block in an inst (Unspecified)
system.Shader.cacheBlockRoundTrip9::max_bucket      1600000                       # Coalsr-to-coalsr time for the Nth cache block in an inst (Unspecified)
system.Shader.cacheBlockRoundTrip9::samples            0                       # Coalsr-to-coalsr time for the Nth cache block in an inst (Unspecified)
system.Shader.cacheBlockRoundTrip9::mean          nan                       # Coalsr-to-coalsr time for the Nth cache block in an inst (Unspecified)
system.Shader.cacheBlockRoundTrip9::stdev          nan                       # Coalsr-to-coalsr time for the Nth cache block in an inst (Unspecified)
system.Shader.cacheBlockRoundTrip9::underflows            0                       # Coalsr-to-coalsr time for the Nth cache block in an inst (Unspecified)
system.Shader.cacheBlockRoundTrip9       |           0                       |           0                       |           0                       |           0                       |           0                       |           0                       |           0                       |           0                       |           0                       |           0                       |           0                       |           0                       |           0                       |           0                       |           0                       |           0                       |           0                       |           0                       |           0                       |           0                       |           0                       |           0                       |           0                       |           0                       |           0                       |           0                       |           0                       |           0                       |           0                       |           0                       |           0                       |           0                       |           0                       |           0                       |           0                       |           0                       |           0                       |           0                       |           0                       |           0                       |           0                       |           0                       |           0                       |           0                       |           0                       |           0                       |           0                       |           0                       |           0                       |           0                       |           0                       |           0                       |           0                       |           0                       |           0                       |           0                       |           0                       |           0                       |           0                       |           0                       |           0                       |           0                       |           0                       |           0                       |           0                       |           0                       |           0                       |           0                       |           0                       |           0                       |           0                       |           0                       |           0                       |           0                       |           0                       |           0                       |           0                       |           0                       |           0                       |           0                       |           0                       |           0                       |           0                       |           0                       |           0                       |           0                       |           0                       |           0                       |           0                       |           0                       |           0                       |           0                       |           0                       |           0                       |           0                       |           0                       |           0                       |           0                       |           0                       |           0                       |           0                       |           0                       |           0                       |           0                       |           0                       |           0                       |           0                       |           0                       |           0                       |           0                       |           0                       |           0                       |           0                       |           0                       |           0                       |           0                       |           0                       |           0                       |           0                       |           0                       |           0                       |           0                       |           0                       |           0                       |           0                       |           0                       |           0                       |           0                       |           0                       |           0                       |           0                       |           0                       |           0                       |           0                       |           0                       |           0                       |           0                       |           0                       |           0                       |           0                       |           0                       |           0                       |           0                       |           0                       |           0                       |           0                       |           0                       |           0                       |           0                       |           0                       |           0                       |           0                       |           0                       |           0                       |           0                       |           0                       |           0                       |           0                       |           0                       |           0                       |           0                       # Coalsr-to-coalsr time for the Nth cache block in an inst (Unspecified)
system.Shader.cacheBlockRoundTrip9::overflows            0                       # Coalsr-to-coalsr time for the Nth cache block in an inst (Unspecified)
system.Shader.cacheBlockRoundTrip9::min_value            0                       # Coalsr-to-coalsr time for the Nth cache block in an inst (Unspecified)
system.Shader.cacheBlockRoundTrip9::max_value            0                       # Coalsr-to-coalsr time for the Nth cache block in an inst (Unspecified)
system.Shader.cacheBlockRoundTrip9::total            0                       # Coalsr-to-coalsr time for the Nth cache block in an inst (Unspecified)
system.l1_coalescer0.coalesced_accesses          7844                       # Number of coalesced TLB accesses (Unspecified)
system.l1_coalescer0.latency               783.018347                       # Avg. latency over all incoming pkts (Unspecified)
system.l1_coalescer0.local_cycles           392974984                       # Number of cycles spent in queue for all incoming reqs (Unspecified)
system.l1_coalescer0.local_latency         517.777633                       # Avg. latency over all incoming pkts (Unspecified)
system.l1_coalescer0.local_queuing_cycles    259858096                       # Number of cycles spent in queue for all incoming reqs (Unspecified)
system.l1_coalescer0.queuing_cycles         259858096                       # Number of cycles spent in queue (Unspecified)
system.l1_coalescer0.uncoalesced_accesses       501872                       # Number of uncoalesced TLB accesses (Unspecified)
system.l1_coalescer1.coalesced_accesses          7840                       # Number of coalesced TLB accesses (Unspecified)
system.l1_coalescer1.latency               783.257526                       # Avg. latency over all incoming pkts (Unspecified)
system.l1_coalescer1.local_cycles           393007296                       # Number of cycles spent in queue for all incoming reqs (Unspecified)
system.l1_coalescer1.local_latency         524.916199                       # Avg. latency over all incoming pkts (Unspecified)
system.l1_coalescer1.local_queuing_cycles    263381952                       # Number of cycles spent in queue for all incoming reqs (Unspecified)
system.l1_coalescer1.queuing_cycles         263381952                       # Number of cycles spent in queue (Unspecified)
system.l1_coalescer1.uncoalesced_accesses       501760                       # Number of uncoalesced TLB accesses (Unspecified)
system.l1_coalescer2.coalesced_accesses          7946                       # Number of coalesced TLB accesses (Unspecified)
system.l1_coalescer2.latency               772.131387                       # Avg. latency over all incoming pkts (Unspecified)
system.l1_coalescer2.local_cycles           392662784                       # Number of cycles spent in queue for all incoming reqs (Unspecified)
system.l1_coalescer2.local_latency         513.037629                       # Avg. latency over all incoming pkts (Unspecified)
system.l1_coalescer2.local_queuing_cycles    260902208                       # Number of cycles spent in queue for all incoming reqs (Unspecified)
system.l1_coalescer2.queuing_cycles         260902208                       # Number of cycles spent in queue (Unspecified)
system.l1_coalescer2.uncoalesced_accesses       508544                       # Number of uncoalesced TLB accesses (Unspecified)
system.l1_coalescer3.coalesced_accesses          7944                       # Number of coalesced TLB accesses (Unspecified)
system.l1_coalescer3.latency               771.707200                       # Avg. latency over all incoming pkts (Unspecified)
system.l1_coalescer3.local_cycles           392348288                       # Number of cycles spent in queue for all incoming reqs (Unspecified)
system.l1_coalescer3.local_latency         516.991188                       # Avg. latency over all incoming pkts (Unspecified)
system.l1_coalescer3.local_queuing_cycles    262846592                       # Number of cycles spent in queue for all incoming reqs (Unspecified)
system.l1_coalescer3.queuing_cycles         262846592                       # Number of cycles spent in queue (Unspecified)
system.l1_coalescer3.uncoalesced_accesses       508416                       # Number of uncoalesced TLB accesses (Unspecified)
system.l2_coalescer.coalesced_accesses           3002                       # Number of coalesced TLB accesses (Unspecified)
system.l2_coalescer.latency               1184.090843                       # Avg. latency over all incoming pkts (Unspecified)
system.l2_coalescer.local_cycles              8159570                       # Number of cycles spent in queue for all incoming reqs (Unspecified)
system.l2_coalescer.local_latency           75.457263                       # Avg. latency over all incoming pkts (Unspecified)
system.l2_coalescer.local_queuing_cycles       519976                       # Number of cycles spent in queue for all incoming reqs (Unspecified)
system.l2_coalescer.queuing_cycles           33278008                       # Number of cycles spent in queue (Unspecified)
system.l2_coalescer.uncoalesced_accesses         6891                       # Number of uncoalesced TLB accesses (Unspecified)
system.l3_coalescer.coalesced_accesses           1975                       # Number of coalesced TLB accesses (Unspecified)
system.l3_coalescer.latency               1221.780759                       # Avg. latency over all incoming pkts (Unspecified)
system.l3_coalescer.local_cycles              2413017                       # Number of cycles spent in queue for all incoming reqs (Unspecified)
system.l3_coalescer.local_latency                   1                       # Avg. latency over all incoming pkts (Unspecified)
system.l3_coalescer.local_queuing_cycles         1975                       # Number of cycles spent in queue for all incoming reqs (Unspecified)
system.l3_coalescer.queuing_cycles             374712                       # Number of cycles spent in queue (Unspecified)
system.l3_coalescer.uncoalesced_accesses         1975                       # Number of uncoalesced TLB accesses (Unspecified)
system.scalar_coalescer.coalesced_accesses         6709                       # Number of coalesced TLB accesses (Unspecified)
system.scalar_coalescer.latency             28.788086                       # Avg. latency over all incoming pkts (Unspecified)
system.scalar_coalescer.local_cycles           324269                       # Number of cycles spent in queue for all incoming reqs (Unspecified)
system.scalar_coalescer.local_latency       25.967773                       # Avg. latency over all incoming pkts (Unspecified)
system.scalar_coalescer.local_queuing_cycles       292501                       # Number of cycles spent in queue for all incoming reqs (Unspecified)
system.scalar_coalescer.queuing_cycles         292501                       # Number of cycles spent in queue (Unspecified)
system.scalar_coalescer.uncoalesced_accesses        11264                       # Number of uncoalesced TLB accesses (Unspecified)
system.sqc_coalescer.coalesced_accesses         22224                       # Number of coalesced TLB accesses (Unspecified)
system.sqc_coalescer.latency                 4.064996                       # Avg. latency over all incoming pkts (Unspecified)
system.sqc_coalescer.local_cycles              172055                       # Number of cycles spent in queue for all incoming reqs (Unspecified)
system.sqc_coalescer.local_latency           1.617186                       # Avg. latency over all incoming pkts (Unspecified)
system.sqc_coalescer.local_queuing_cycles        68449                       # Number of cycles spent in queue for all incoming reqs (Unspecified)
system.sqc_coalescer.queuing_cycles             68449                       # Number of cycles spent in queue (Unspecified)
system.sqc_coalescer.uncoalesced_accesses        42326                       # Number of uncoalesced TLB accesses (Unspecified)

---------- End Simulation Statistics   ----------
